Using: /programs/synopsys/hspice_vK-2015.06/hspice/linux64/hspice bpm_custom.sp
 ****** HSPICE -- K-2015.06 linux64 (May 25 2015) ******                        
  Copyright (c) 1986 - 2018 by Synopsys, Inc. All Rights Reserved.              
  This software and the associated documentation are proprietary
  to Synopsys, Inc. This software may only be used in accordance
  with the terms and conditions of a written license agreement with
  Synopsys, Inc. All other use, reproduction, or distribution of
  this software is strictly prohibited.
  Input File: bpm_custom.sp                                                     
  Command line options: /programs/synopsys/hspice_vK-2015.06/hspice/linux64/hspice bpm_custom.sp
 lic:  
 lic: FLEXlm: v11.2.1 
 lic: USER:   dshadoa              HOSTNAME: shire.ecen.okstate.edu 
 lic: HOSTID: "2c44fd80a220"       PID:      76889 
 lic: Using FLEXlm license file: 
 lic: 27020@avatar.ecen.okstate.edu 
 lic: Checkout 1 hspice 
 lic: License/Maintenance for hspice will expire on 27-jan-2019/2017.12 
 lic: 1(in_use)/50(total) FLOATING license(s) on SERVER 27020@avatar.ecen.okstate.edu 
 lic:   
 Init: read install configuration file: /programs/synopsys/hspice_vK-2015.06/hspice/meta.cfg
1****** HSPICE -- K-2015.06 linux64 (May 25 2015) ******                        
 ******  
 *********************************************************

 ****** mos   model parameters tnom=  25.000 temp=  25.000 ******
 ***************************************************************************
 ***        model parameters  model name:   0:cmosntt  model type:nmos   ***
 ***************************************************************************

   *** general parameters ***
    deriv=   0.           

   ***  level 49  model parameters  ***

      hspver=    2006.03               level=         49         
     version=        3.1            paramchk=          0         
      apwarn=          1                lite=          0         
      vgslim=          0             binUnit=          1         
      capMod=          2               xpart=        0.5         
      mobMod=          1              nqsMod=          0         
      stiMod=          0                 elm=          5         
    sfvtflag=          0                 tox=   1.39e-08 meter   
          xj=    1.5e-07 meter       binflag=          0         
        lmin=          0 meter          lmax=          0 meter   
        wmin=          0 meter          wmax=          0 meter   
        lref=          0 meter          wref=          0 meter   
        lint=3.59761e-08 meter          wint=2.47235e-07 meter   
       lmult=          1               wmult=          1         
          ll=          0                 lln=          1         
          lw=          0                 lwn=          1         
         lwl=          0                  wl=          0         
         wln=          1                  ww=          0         
         wwn=          1                 wwl=          0         
         dwg=-1.28716e-08 m/V             dwb=5.30659e-08 m/V^1/2 
          xl=          0                  xw=          0         
          a0=   0.610354                 ags=   0.119461 V^-1    
          b0=2.67476e-06 meter            b1=      5e-06 meter   
        keta=-0.00264068 V^-1           voff=          0 V       
       ngate=          0 cm^-3           vbx=          0 V       
         vbm=         -3 V                xt=   1.55e-07 meter   
        vth0=   0.669606 V               nch=    1.7e+17 cm^-3   
        nsub=      6e+16 cm^-3           nlx=      1e-09 meter   
      gamma1=          0 V^-1/2       gamma2=          0 V^-1/2  
          k1=   0.835161 V^1/2            k2= -0.0839158         
          k3=    23.1024                 k3b=   -7.68411 V^-1    
          w0=      1e-08 meter          dvt0=    2.90472         
        dvt1=   0.430269                dvt2=  -0.134857 V^-1    
       dvt0w=          0 meter^-1      dvt1w=          0 meter^-1
       dvt2w=          0 V^-1           dsub=   0.254346         
        eta0=  0.0246738                etab=-0.00140612 V^-1    
          u0=     458.44 cm^2/V/sec         ua=      1e-13 m/V     
          ub= 1.4855e-18 (m/V)^2          uc=1.62994e-11 V^-1    
        vsat=     164399 m/sec            a1=8.21959e-05 v^-1    
          a2=   0.356479               delta=       0.01 V       
        rdsw=    1387.11 ohm-um         prwg=  0.0299916 V^-1    
        prwb=  0.0363981 V^-1/2           wr=          1         
        pclm=    2.59452             pdiblc1=  -0.428234         
     pdiblc2= 0.00231174             pdiblcb= -0.0272914 V^-1    
      pscbe1=5.59862e+08 V/m          pscbe2=5.46165e-05 V/m     
       drout=   0.728357                pvag=          0         
     nfactor=   0.836558                cdsc=    0.00024 f/m^2   
       cdscb=          0 f/V/m^2       cdscd=          0 f/V/m^2 
         cit=          0 f/m^2        alpha0=          0 m/V     
       beta0=         30 V               dlc=3.59761e-08 meter   
         dwc=2.47235e-07 meter           clc=      1e-07 meter   
         cle=        0.6                cgso=      2e-10 f/m     
        cgdo=      2e-10 f/m            cgbo=      1e-09 f/m     
        cgsl=          0 f/m            cgdl=          0 f/m     
      ckappa=        0.6                  cf=          0 f/m     
        tnom=     300.15 K               kt1=    -0.2501 V       
        kt1l=  -2.58e-09                 kt2=          0         
         ute=         -1                 ua1=    5.4e-10 m/V     
         ub1=   -4.8e-19 (m/V)^2         uc1=   -7.5e-11 m/V^2   
          at=     100000 m/s             prt=      8.621         
         using Berkeley noise model       noiMod=          1         
        noia=      1e+20                noib=      50000         
        noic=   -1.4e-12                  em=    4.1e+07         
          ef=          1                  af=          1         
          kf=          0              gdsnoi=-1.23457e-29         
         using Hspice diodes            using ACM 
         acm=         0                 hdif=         0 meter    
        ldif=         0 meter             js=         0 amp/m^2  
         jsw=         0 amp/m            xti=         0          
           n=         1                   cj=0.000419777 f/m^2    
          mj=  0.451504                   pb=      0.99 V        
        cjsw=3.24272e-10 f/m             mjsw=  0.115399          
         php=      0.99 V               pbsw (not used)           
      cjgate=3.24272e-10 f/m            cjswg (not used)           
       mjswg (not used)                 pbswg (not used)           
       lketa= 0.00117319               wketa= -0.0248758         
       pvth0=  0.0585501                 pk2= -0.0299638         
       prdsw=    133.286         
 ***************************************************************************
 ***        model parameters  model name:   0:cmosptt  model type:pmos   ***
 ***************************************************************************

   *** general parameters ***
    deriv=   0.           

   ***  level 49  model parameters  ***

      hspver=    2006.03               level=         49         
     version=        3.1            paramchk=          0         
      apwarn=          1                lite=          0         
      vgslim=          0             binUnit=          1         
      capMod=          2               xpart=        0.5         
      mobMod=          1              nqsMod=          0         
      stiMod=          0                 elm=          5         
    sfvtflag=          0                 tox=   1.39e-08 meter   
          xj=    1.5e-07 meter       binflag=          0         
        lmin=          0 meter          lmax=          0 meter   
        wmin=          0 meter          wmax=          0 meter   
        lref=          0 meter          wref=          0 meter   
        lint=5.52881e-08 meter          wint=2.83804e-07 meter   
       lmult=          1               wmult=          1         
          ll=          0                 lln=          1         
          lw=          0                 lwn=          1         
         lwl=          0                  wl=          0         
         wln=          1                  ww=          0         
         wwn=          1                 wwl=          0         
         dwg=-1.60638e-08 m/V             dwb=2.26639e-08 m/V^1/2 
          xl=          0                  xw=          0         
          a0=   0.843002                 ags=   0.132861 V^-1    
          b0=7.11791e-07 meter            b1=      5e-06 meter   
        keta=-0.00367486 V^-1           voff= -0.0558512 V       
       ngate=          0 cm^-3           vbx=          0 V       
         vbm=         -3 V                xt=   1.55e-07 meter   
        vth0=  -0.921435 V               nch=    1.7e+17 cm^-3   
        nsub=      6e+16 cm^-3           nlx=  2.594e-08 meter   
      gamma1=          0 V^-1/2       gamma2=          0 V^-1/2  
          k1=   0.555372 V^1/2            k2= 0.00876333         
          k3=    6.30636                 k3b=  -0.648736 V^-1    
          w0= 1.2807e-08 meter          dvt0=    2.51312         
        dvt1=   0.548054                dvt2=  -0.118649 V^-1    
       dvt0w=          0 meter^-1      dvt1w=          0 meter^-1
       dvt2w=          0 V^-1           dsub=          1         
        eta0=   0.325188                etab= -0.0580325 V^-1    
          u0=    212.017 cm^2/V/sec         ua=2.80712e-09 m/V     
          ub=      1e-21 (m/V)^2          uc=-5.82128e-11 V^-1    
        vsat=     171360 m/sec            a1=4.77502e-05 v^-1    
          a2=        0.3               delta=       0.01 V       
        rdsw=    2837.21 ohm-um         prwg= -0.0363908 V^-1    
        prwb=-1.01672e-05 V^-1/2           wr=          1         
        pclm=    2.24096             pdiblc1=  0.0411445         
     pdiblc2= 0.00335557             pdiblcb= -0.0551797 V^-1    
      pscbe1=6.44809e+09 V/m          pscbe2=6.30085e-10 V/m     
       drout=    0.20369                pvag=          0         
     nfactor=   0.934249                cdsc=    0.00024 f/m^2   
       cdscb=          0 f/V/m^2       cdscd=          0 f/V/m^2 
         cit=          0 f/m^2        alpha0=          0 m/V     
       beta0=         30 V               dlc=5.52881e-08 meter   
         dwc=2.83804e-07 meter           clc=      1e-07 meter   
         cle=        0.6                cgso=    2.9e-10 f/m     
        cgdo=    2.9e-10 f/m            cgbo=      1e-09 f/m     
        cgsl=          0 f/m            cgdl=          0 f/m     
      ckappa=        0.6                  cf=          0 f/m     
        tnom=     300.15 K               kt1=    -0.2942 V       
        kt1l=   1.68e-09                 kt2=          0         
         ute=         -1                 ua1=    4.5e-09 m/V     
         ub1=   -6.3e-18 (m/V)^2         uc1=     -1e-10 m/V^2   
          at=       1000 m/s             prt=     59.494         
         using Berkeley noise model       noiMod=          1         
        noia=    9.9e+18                noib=       2400         
        noic=    1.4e-12                  em=    4.1e+07         
          ef=          1                  af=          1         
          kf=          0              gdsnoi=-1.23457e-29         
         using Hspice diodes            using ACM 
         acm=         0                 hdif=         0 meter    
        ldif=         0 meter             js=         0 amp/m^2  
         jsw=         0 amp/m            xti=         0          
           n=         1                   cj=0.000723553 f/m^2    
          mj=  0.495529                   pb=  0.952735 V        
        cjsw=2.69279e-10 f/m             mjsw=  0.295839          
         php=  0.952735 V               pbsw (not used)           
      cjgate=2.69279e-10 f/m            cjswg (not used)           
       mjswg (not used)                 pbswg (not used)           
       lketa= -0.0042059               wketa= 0.00529216         
       pvth0= 0.00598016                 pk2= 0.00373981         
       prdsw=    14.8598         
  **info** (bpm_custom.sp:16) DC voltage reset to initial transient source value              in source        0:va                  new dc=  0.0000D+00
  **warning** (bpm_custom.sp:2094) Both nodes of element c239 are connected together; Line ignored.
 

 Warning: Ps = 0 is less than Weff = 2.50553e-06 in BSIM3 model    0:cmosntt element m1001 with W = 3e-06, L = 6e-07

  **warning** (bpm_custom.sp:2623) Unable to find referenced node out; Output variable ignored. Specify a valid node.
  

  **warning** the following singular supplies were terminated to 1 meg resistor 
          supply       node1            node2
(bpm_custom.sp:16)va                      0:a                defined in subckt 0                     0:0                defined in subckt 0               
(bpm_custom.sp:17)vb                      0:b                defined in subckt 0                     0:0                defined in subckt 0               
(bpm_custom.sp:18)vc                      0:c                defined in subckt 0                     0:0                defined in subckt 0               
(bpm_custom.sp:19)vd                      0:d                defined in subckt 0                     0:0                defined in subckt 0               
             
 Warning:'No DC path nodes' occurs 3 times
 No DC path from the following nodes,connected with gdcpath:
 -----------------------
 |Node      |Subckt    |
 |----------+----------|
 |clk       |0         |
 |en        |0         |
 |init      |0         |
 -----------------------
              
      
 **info** set option symb=1 internally to help for convergence.
 *****************************************************************
 ******  option summary
 ******
 runlvl  = 3         bypass  = 2         
 ******
 *********************************************************

 ****** dc transfer curves tnom=  25.000 temp=  70.000 ******
 x

 volt         voltage   
             a          
    0.          0.      
  100.00000m  100.0000m 
  200.00000m  200.0000m 
  300.00000m  300.0000m 
  400.00000m  400.0000m 
  500.00000m  500.0000m 
  600.00000m  600.0000m 
  700.00000m  700.0000m 
  800.00000m  800.0000m 
  900.00000m  900.0000m 
    1.00000     1.0000  
    1.10000     1.1000  
    1.20000     1.2000  
    1.30000     1.3000  
    1.40000     1.4000  
    1.50000     1.5000  
    1.60000     1.6000  
    1.70000     1.7000  
    1.80000     1.8000  
    1.90000     1.9000  
    2.00000     2.0000  
    2.10000     2.1000  
    2.20000     2.2000  
    2.30000     2.3000  
    2.40000     2.4000  
    2.50000     2.5000  
    2.60000     2.6000  
    2.70000     2.7000  
    2.80000     2.8000  
    2.90000     2.9000  
    3.00000     3.0000  
    3.10000     3.1000  
    3.20000     3.2000  
    3.30000     3.3000  
    3.40000     3.4000  
    3.50000     3.5000  
    3.60000     3.6000  
    3.70000     3.7000  
    3.80000     3.8000  
    3.90000     3.9000  
    4.00000     4.0000  
    4.10000     4.1000  
    4.20000     4.2000  
    4.30000     4.3000  
    4.40000     4.4000  
    4.50000     4.5000  
    4.60000     4.6000  
    4.70000     4.7000  
    4.80000     4.8000  
    4.90000     4.9000  
    5.00000     5.0000  
y
 **info** dc convergence successful at Newton-Raphson method 
1****** HSPICE -- K-2015.06 linux64 (May 25 2015) ******                        
 ******  
 *********************************************************

 ****** operating point information tnom=  25.000 temp=  70.000 ******
 ****** operating point status is all       simulation time is     0.     
    node    =voltage      node    =voltage      node    =voltage

 +0:a       =   0.      0:b       =   0.      0:bs2_0[1]=   5.0000 
 +0:bs2_0[1]=   3.7508  0:bs2_0[1]=   1.1572  0:bs2_0[1]=   5.0000 
 +0:bs2_0[1]=  12.7954n 0:bs2_0[2]=  11.1858n 0:bs2_0[2]=   5.0000 
 +0:bs2_0[2]=  22.3717n 0:bs2_0[2]=   4.1900  0:bs2_0[2]= 224.1791n
 +0:bs2_0[2]=   5.0000  0:bs2_0[2]=   1.2439  0:bs2_0[2]=  12.7954n
 +0:bs2_0[2]=  20.6968n 0:bs2_0[2]=  69.2121n 0:bs2_0[2]=  34.6061n
 +0:bs2_0[2]=   1.2439  0:bs2_0[2]=   3.7508  0:bs2_0[2]=   5.0000 
 +0:bs2_0[2]=   5.0000  0:bs2_0[2]=   5.0000  0:bs2_0[2]= 981.6865m
 +0:bs2_0[2]=   5.0000  0:bs2_0[2]=   1.1572  0:bs2_0[2]=   5.0000 
 +0:bs2_0[2]=  12.7954n 0:bs2_0[3]=  11.1858n 0:bs2_0[3]=   5.0000 
 +0:bs2_0[3]=  22.3717n 0:bs2_0[3]=  32.9965n 0:bs2_0[3]=   5.0000 
 +0:bs2_0[3]=  65.9929n 0:bs2_0[3]= 125.5202a 0:bs2_0[3]=   5.0000 
 +0:bs2_0[3]= 125.5202a 0:bs2_0[3]=  65.9929n 0:bs2_0[3]=  32.9965n
 +0:bs2_0[3]=   1.2439  0:bs2_0[3]=   3.7508  0:bs2_0[3]= 981.6865m
 +0:bs2_0[3]=   3.7508  0:bs2_0[3]=   3.7508  0:bs2_0[3]= 981.6865m
 +0:bs2_0[3]=   5.0000  0:bs2_0[3]=   1.1572  0:bs2_0[3]=   5.0000 
 +0:bs2_0[3]=  12.7954n 0:bs2_0[4]=  11.1858n 0:bs2_0[4]=   5.0000 
 +0:bs2_0[4]=  22.3717n 0:bs2_0[4]=  32.9965n 0:bs2_0[4]=   5.0000 
 +0:bs2_0[4]=  65.9929n 0:bs2_0[4]= 125.5202a 0:bs2_0[4]=   5.0000 
 +0:bs2_0[4]=   6.4958n 0:bs2_0[4]=   5.0000  0:bs2_0[4]=   4.1900 
 +0:bs2_0[4]=  72.0274n 0:bs2_0[4]=   3.7508  0:bs2_0[4]= 981.6865m
 +0:bs2_0[4]=   3.7508  0:bs2_0[4]=   5.0000  0:bs2_0[4]=   5.0000 
 +0:bs2_0[4]=   3.7508  0:bs2_0[4]=   1.1572  0:bs2_0[4]=   5.0000 
 +0:bs2_0[4]=  12.7954n 0:bs2_0[5]=  11.1858n 0:bs2_0[5]=   5.0000 
 +0:bs2_0[5]=  22.3717n 0:bs2_0[5]=   4.1900  0:bs2_0[5]= 211.2878n
 +0:bs2_0[5]=   5.0000  0:bs2_0[5]=   1.2439  0:bs2_0[5]=  12.7954n
 +0:bs2_0[5]=   1.2439  0:bs2_0[5]=   5.0000  0:bs2_0[5]=   4.1900 
 +0:bs2_0[5]=  72.0274n 0:bs2_0[5]=   3.7508  0:bs2_0[5]=   5.0000 
 +0:bs2_0[5]=   5.0000  0:bs2_0[5]=   5.0000  0:bs2_0[5]=   5.0000 
 +0:bs2_0[0]=  11.1858n 0:bs2_0[5]=   3.7508  0:bs2_0[5]=   1.1572 
 +0:bs2_0[5]=   5.0000  0:bs2_0[5]=  12.7954n 0:bs2_0[6]=  11.1858n
 +0:bs2_0[6]=   5.0000  0:bs2_0[6]=  22.3717n 0:bs2_0[6]=   4.1900 
 +0:bs2_0[6]= 224.1791n 0:bs2_0[6]=   5.0000  0:bs2_0[0]=   5.0000 
 +0:bs2_0[6]=   1.2439  0:bs2_0[6]=  12.7954n 0:bs2_0[6]=  20.6968n
 +0:bs2_0[6]=  69.2121n 0:bs2_0[6]=  34.6061n 0:bs2_0[6]=   1.2439 
 +0:bs2_0[6]=   3.7508  0:bs2_0[6]=   5.0000  0:bs2_0[6]=   5.0000 
 +0:bs2_0[6]=   5.0000  0:bs2_0[0]=  22.3717n 0:bs2_0[6]= 981.6865m
 +0:bs2_0[6]=   5.0000  0:bs2_0[6]=   1.1572  0:bs2_0[6]=   5.0000 
 +0:bs2_0[6]=  12.7954n 0:bs2_0[7]=  11.1858n 0:bs2_0[7]=   5.0000 
 +0:bs2_0[7]=  22.3717n 0:bs2_0[7]=  32.9965n 0:bs2_0[7]=   5.0000 
 +0:bs2_0[0]=   4.1890  0:bs2_0[7]=  65.9929n 0:bs2_0[7]= 125.5202a
 +0:bs2_0[7]=   5.0000  0:bs2_0[7]= 125.5202a 0:bs2_0[7]=  65.9929n
 +0:bs2_0[7]=  32.9965n 0:bs2_0[7]=   1.2439  0:bs2_0[7]=   3.7508 
 +0:bs2_0[7]= 981.6865m 0:bs2_0[7]=   3.7508  0:bs2_0[0]=  80.8547m
 +0:bs2_0[7]=   3.7508  0:bs2_0[7]= 981.6865m 0:bs2_0[7]=   5.0000 
 +0:bs2_0[7]=   1.1572  0:bs2_0[7]=   5.0000  0:bs2_0[7]=  12.7954n
 +0:bs1_0[0]=  11.1858n 0:bs1_0[0]=   5.0000  0:bs1_0[0]=  22.3717n
 +0:bs1_0[0]=   4.1900  0:bs2_0[0]=   5.0000  0:bs1_0[0]=   5.0000 
 +0:bs1_0[0]=   1.2439  0:bs1_0[0]=  12.7954n 0:bs1_0[0]=  20.6968n
 +0:bs1_0[0]=  69.2121n 0:bs1_0[0]=  34.6061n 0:bs1_0[0]=   1.2439 
 +0:bs1_0[0]=   3.7508  0:bs1_0[0]=   5.0000  0:bs1_0[0]=   5.0000 
 +0:bs2_0[0]=   1.2439  0:bs1_0[0]=   5.0000  0:bs1_0[0]= 981.6865m
 +0:bs1_0[0]=   5.0000  0:bs1_0[0]=   1.1572  0:bs1_0[0]=   5.0000 
 +0:bs1_0[0]=   4.5151  0:bs1_0[0]=   4.1583  0:bs1_0[0]=   5.0000 
 +0:bs1_0[0]=   4.9992  0:bs1_0[0]=   2.0714m 0:bs2_0[0]=  12.7954n
 +0:bs1_0[0]=   5.0000  0:bs1_0[0]=   5.0000  0:bs1_0[0]=   3.5947n
 +0:bs1_0[0]=   2.7204  0:bs1_0[0]= 791.9924u 0:bs1_0[0]=   2.0714m
 +0:bs1_0[0]=   2.0714m 0:bs1_0[1]=  11.1858n 0:bs1_0[1]=   5.0000 
 +0:bs1_0[1]=  22.3717n 0:bs2_0[0]=   1.2439  0:bs1_0[1]=  32.9965n
 +0:bs1_0[1]=   5.0000  0:bs1_0[1]=  65.9929n 0:bs1_0[1]= 125.5202a
 +0:bs1_0[1]=   5.0000  0:bs1_0[1]=   6.4958n 0:bs1_0[1]=   5.0000 
 +0:bs1_0[1]=   4.1900  0:bs1_0[1]=  30.3597n 0:bs1_0[1]=   3.7508 
 +0:bs2_0[0]=   5.0000  0:bs1_0[1]= 981.6865m 0:bs1_0[1]=   3.7508 
 +0:bs1_0[1]=   5.0000  0:bs1_0[1]=   5.0000  0:bs1_0[1]=   3.7508 
 +0:bs1_0[1]=   1.1572  0:bs1_0[1]=   5.0000  0:bs1_0[1]=   5.0000 
 +0:bs1_0[1]=   5.0000  0:bs1_0[1]=   5.0000  0:bs2_0[0]=   4.1900 
 +0:bs1_0[1]=   5.0000  0:bs1_0[1]=   3.6927  0:bs1_0[1]=   4.6825 
 +0:bs1_0[1]=   4.0932  0:bs1_0[1]=  12.9955n 0:bs1_0[1]=  12.9891n
 +0:bs1_0[1]=   2.6723  0:bs1_0[1]= 612.0969m 0:bs1_0[1]= 612.0969m
 +0:bs1_0[2]=  11.1858n 0:bs2_0[0]=  59.3601n 0:bs1_0[2]=   5.0000 
 +0:bs1_0[2]=  22.3717n 0:bs1_0[2]=   4.1890  0:bs1_0[2]=  80.8823m
 +0:bs1_0[2]=   5.0000  0:bs1_0[2]=   1.2439  0:bs1_0[2]=  12.7954n
 +0:bs1_0[2]=  20.6968n 0:bs1_0[2]=  69.2121n 0:bs1_0[2]=  34.6061n
 +0:bs2_0[0]=   3.7508  0:bs1_0[2]=   1.2439  0:bs1_0[2]=   3.7508 
 +0:bs1_0[2]=   5.0000  0:bs1_0[2]=   5.0000  0:bs1_0[2]=   5.0000 
 +0:bs1_0[2]= 981.6865m 0:bs1_0[2]=   5.0000  0:bs1_0[2]=   1.1572 
 +0:bs1_0[2]=   5.0000  0:bs1_0[2]=   4.5151  0:bs2_0[0]=   5.0000 
 +0:bs1_0[2]=   4.1583  0:bs1_0[2]=   5.0000  0:bs1_0[2]=   4.9992 
 +0:bs1_0[2]=   2.0714m 0:bs1_0[2]=   5.0000  0:bs1_0[2]=   5.0000 
 +0:bs1_0[2]=   3.5947n 0:bs1_0[2]=   2.7204  0:bs1_0[2]= 791.9924u
 +0:bs1_0[2]=   2.0714m 0:bs2_0[0]=   5.0000  0:bs1_0[2]=   2.0714m
 +0:bs1_0[3]=  11.1858n 0:bs1_0[3]=   5.0000  0:bs1_0[3]=  22.3717n
 +0:bs1_0[3]=  32.9965n 0:bs1_0[3]=   5.0000  0:bs1_0[3]=  65.9929n
 +0:bs1_0[3]= 125.5202a 0:bs1_0[3]=   5.0000  0:bs1_0[3]=   6.4958n
 +0:bs2_0[0]=   5.0000  0:bs1_0[3]=   5.0000  0:bs1_0[3]=   4.1900 
 +0:bs1_0[3]=  30.3597n 0:bs1_0[3]=   3.7508  0:bs1_0[3]= 981.6865m
 +0:bs1_0[3]=   3.7508  0:bs1_0[3]=   5.0000  0:bs1_0[3]=   5.0000 
 +0:bs1_0[3]=   3.7508  0:bs1_0[3]=   1.1572  0:bs2_0[0]=   5.0000 
 +0:bs1_0[3]=   5.0000  0:bs1_0[3]=   5.0000  0:bs1_0[3]=   5.0000 
 +0:bs1_0[3]=   5.0000  0:bs1_0[3]=   5.0000  0:bs1_0[3]=   3.6928 
 +0:bs1_0[3]=   4.6825  0:bs1_0[3]=   4.0933  0:bs1_0[3]=  12.9891n
 +0:bs1_0[3]=  12.9891n 0:bs2_0[0]=   3.7508  0:bs1_0[3]=   2.6724 
 +0:bs1_0[3]= 612.2127m 0:bs1_0[3]= 612.2127m 0:bs1_0[4]=  11.1858n
 +0:bs1_0[4]=   5.0000  0:bs1_0[4]=  22.3717n 0:bs1_0[4]=   4.1890 
 +0:bs1_0[4]=  80.8547m 0:bs1_0[4]=   5.0000  0:bs1_0[4]=   1.2439 
 +0:bs2_0[0]=   1.1572  0:bs1_0[4]=  12.7954n 0:bs1_0[4]=   1.2439 
 +0:bs1_0[4]=   5.0000  0:bs1_0[4]=   4.1900  0:bs1_0[4]=  30.3597n
 +0:bs1_0[4]=   3.7508  0:bs1_0[4]=   5.0000  0:bs1_0[4]=   5.0000 
 +0:bs1_0[4]=   5.0000  0:bs1_0[4]=   5.0000  0:bs2_0[0]=   5.0000 
 +0:bs1_0[4]=   3.7508  0:bs1_0[4]=   1.1572  0:bs1_0[4]=   5.0000 
 +0:bs1_0[4]=   5.0000  0:bs1_0[4]=   5.0000  0:bs1_0[4]=   5.0000 
 +0:bs1_0[4]=   5.0000  0:bs1_0[4]=   3.6927  0:bs1_0[4]=   4.6825 
 +0:bs1_0[4]=   4.0932  0:bs2_0[0]=  12.7954n 0:bs1_0[4]=  12.9955n
 +0:bs1_0[4]=  12.9891n 0:bs1_0[4]=   2.6723  0:bs1_0[4]= 612.0969m
 +0:bs1_0[4]= 612.0969m 0:bs1_0[5]=  11.1858n 0:bs1_0[5]=   5.0000 
 +0:bs1_0[5]=  22.3717n 0:bs1_0[5]=   4.1890  0:bs1_0[5]=  80.8823m
 +0:bs2_0[1]=  11.1858n 0:bs1_0[5]=   5.0000  0:bs1_0[5]=   1.2439 
 +0:bs1_0[5]=  12.7954n 0:bs1_0[5]=  20.6968n 0:bs1_0[5]=  69.2121n
 +0:bs1_0[5]=  34.6061n 0:bs1_0[5]=   1.2439  0:bs1_0[5]=   3.7508 
 +0:bs1_0[5]=   5.0000  0:bs1_0[5]=   5.0000  0:bs2_0[1]=   5.0000 
 +0:bs1_0[5]=   5.0000  0:bs1_0[5]= 981.6865m 0:bs1_0[5]=   5.0000 
 +0:bs1_0[5]=   1.1572  0:bs1_0[5]=   5.0000  0:bs1_0[5]=   4.5151 
 +0:bs1_0[5]=   4.1583  0:bs1_0[5]=   5.0000  0:bs1_0[5]=   4.9992 
 +0:bs1_0[5]=   2.0714m 0:bs2_0[1]=  22.3717n 0:bs1_0[5]=   5.0000 
 +0:bs1_0[5]=   5.0000  0:bs1_0[5]=   3.5947n 0:bs1_0[5]=   2.7204 
 +0:bs1_0[5]= 791.9924u 0:bs1_0[5]=   2.0714m 0:bs1_0[5]=   2.0714m
 +0:bs1_0[6]=  11.1858n 0:bs1_0[6]=   5.0000  0:bs1_0[6]=  22.3717n
 +0:bs2_0[1]=   4.1900  0:bs1_0[6]=  32.9965n 0:bs1_0[6]=   5.0000 
 +0:bs1_0[6]=  65.9929n 0:bs1_0[6]= 125.5202a 0:bs1_0[6]=   5.0000 
 +0:bs1_0[6]=   6.4958n 0:bs1_0[6]=   5.0000  0:bs1_0[6]=   4.1900 
 +0:bs1_0[6]=  30.3597n 0:bs1_0[6]=   3.7508  0:bs2_0[1]= 173.2856n
 +0:bs1_0[6]= 981.6865m 0:bs1_0[6]=   3.7508  0:bs1_0[6]=   5.0000 
 +0:bs1_0[6]=   5.0000  0:bs1_0[6]=   3.7508  0:bs1_0[6]=   1.1572 
 +0:bs1_0[6]=   5.0000  0:bs1_0[6]=   5.0000  0:bs1_0[6]=   5.0000 
 +0:bs1_0[6]=   5.0000  0:bs2_0[1]=   5.0000  0:bs1_0[6]=   5.0000 
 +0:bs1_0[6]=   3.6928  0:bs1_0[6]=   4.6825  0:bs1_0[6]=   4.0933 
 +0:bs1_0[6]=  12.9891n 0:bs1_0[6]=  12.9891n 0:bs1_0[6]=   2.6724 
 +0:bs1_0[6]= 612.2127m 0:bs1_0[6]= 612.2127m 0:bs1_0[7]=  11.1858n
 +0:bs2_0[1]=   1.2439  0:bs1_0[7]=   5.0000  0:bs1_0[7]=  22.3717n
 +0:bs1_0[7]=   4.1890  0:bs1_0[7]=  80.8547m 0:bs1_0[7]=   5.0000 
 +0:bs1_0[7]=   1.2439  0:bs1_0[7]=  12.7954n 0:bs1_0[7]=   1.2439 
 +0:bs1_0[7]=   5.0000  0:bs1_0[7]=   4.1900  0:bs2_0[1]=  12.7954n
 +0:bs1_0[7]=  30.3597n 0:bs1_0[7]=   3.7508  0:bs1_0[7]=   5.0000 
 +0:bs1_0[7]=   5.0000  0:bs1_0[7]=   5.0000  0:bs1_0[7]=   5.0000 
 +0:bs1_0[7]=   3.7508  0:bs1_0[7]=   1.1572  0:bs1_0[7]=   5.0000 
 +0:bs1_0[7]=   5.0000  0:bs2_0[1]=   1.2439  0:bs1_0[7]=   5.0000 
 +0:bs1_0[7]=   5.0000  0:bs1_0[7]=   5.0000  0:bs1_0[7]=   3.6928 
 +0:bs1_0[7]=   4.6825  0:bs1_0[7]=   4.0933  0:bs1_0[7]=  12.9891n
 +0:bs1_0[7]=  12.9891n 0:bs1_0[7]=   2.6724  0:bs1_0[7]= 612.2127m
 +0:bs2_0[1]=   5.0000  0:bs1_0[7]= 612.2127m 0:bs2_0[1]=   4.1900 
 +0:bs2_0[1]=  72.0274n 0:bs2_0[1]=   3.7508  0:bs2_0[1]=   5.0000 
 +0:bs2_0[1]=   5.0000  0:bs2_0[1]=   5.0000  0:bs1_0[0]=   5.0000 
 +0:bs1_0[0]=  12.7954n 0:bs1_0[0]=   5.0000  0:bs1_0[0]=   1.8713 
 +0:bs1_0[1]=  80.8823m 0:bs1_0[1]=   1.3035m 0:bs1_0[1]=  73.5020n
 +0:bs1_0[1]=   1.8713  0:bs1_0[2]=   5.0000  0:bs1_0[2]=  12.7954n
 +0:bs1_0[2]=   5.0000  0:bs1_0[2]=   1.8713  0:bs1_0[3]=  80.8547m
 +0:bs1_0[3]=  12.7954n 0:bs1_0[3]=  73.5020n 0:bs1_0[3]=   1.8713 
 +0:bs1_0[4]=  80.8823m 0:bs1_0[4]=   1.3035m 0:bs1_0[4]=  73.5020n
 +0:bs1_0[4]=   1.8713  0:bs1_0[5]=   5.0000  0:bs1_0[5]=  12.7954n
 +0:bs1_0[5]=   5.0000  0:bs1_0[5]=   1.8713  0:bs1_0[6]=  80.8547m
 +0:bs1_0[6]=  12.7954n 0:bs1_0[6]=  73.5020n 0:bs1_0[6]=   1.8713 
 +0:bs1_0[7]=  73.5020n 0:bs1_0[7]=   1.8713  0:bs2_0[0]=  80.8547m
 +0:bs2_0[0]= 160.5031n 0:bs2_0[1]= 198.5052n 0:bs2_0[2]=   5.0000 
 +0:bs2_0[3]=   5.0000  0:bs2_0[4]= 198.5052n 0:bs2_0[5]= 198.5052n
 +0:bs2_0[6]=   5.0000  0:bs2_0[7]=   5.0000  0:c       =   0.     
 +0:clk     =   0.      0:cout    =   1.3035m 0:d       =   0.     
 +0:delay   =   1.3035m 0:en      =   0.      0:init    =   0.     
 +0:mcand_0 =   1.8713  0:mcand_1 =   1.8713  0:mcand_2 =   1.8713 
 +0:mcand_3 =   1.8713  0:mcand_4 =   1.8713  0:mcand_5 =   1.8713 
 +0:mcand_6 =   1.8713  0:mcand_7 =   1.8713  0:mplier_0=   3.7503 
 +0:mplier_1=   3.7503  0:mplier_2=   1.2439  0:mplier_3=   1.2439 
 +0:mplier_4=   3.7503  0:mplier_5=   3.7503  0:mplier_6=   1.2439 
 +0:mplier_7=   1.2439  0:q_0     =   5.0000  0:q_1     =   5.0000 
 +0:q_10    =   5.0000  0:q_11    =  60.7194n 0:q_12    =  60.7194n
 +0:q_13    =   5.0000  0:q_14    =  60.7194n 0:q_15    =   5.0000 
 +0:q_2     = 144.0549n 0:q_3     = 144.0549n 0:q_4     =   5.0000 
 +0:q_5     =   5.0000  0:q_6     = 144.0549n 0:q_7     = 118.7201n
 +0:q_8     =  60.7194n 0:q_9     =  60.7194n 0:vdd     =   5.0000 


 maximum nodal capacitance=   1.078E-11         on node     0:vdd             

    nodal  capacitance table 

    node    =    cap      node    =    cap      node    =    cap

 +0:a       =   0.      0:b       =   0.      0:bs2_0[1]=  15.1362f
 +0:bs2_0[1]=   8.7099f 0:bs2_0[1]=   7.9353f 0:bs2_0[1]=  46.0732f
 +0:bs2_0[1]=  28.5912f 0:bs2_0[2]=   6.8417f 0:bs2_0[2]=  77.9872f
 +0:bs2_0[2]=  43.5448f 0:bs2_0[2]=   3.6404f 0:bs2_0[2]=  34.8082f
 +0:bs2_0[2]=  37.1473f 0:bs2_0[2]=   4.1113f 0:bs2_0[2]=  44.5030f
 +0:bs2_0[2]=   4.7127f 0:bs2_0[2]=  46.8797f 0:bs2_0[2]=   6.8417f
 +0:bs2_0[2]=   4.1113f 0:bs2_0[2]=   8.7099f 0:bs2_0[2]=  15.1362f
 +0:bs2_0[2]=  13.6773f 0:bs2_0[2]=  13.6773f 0:bs2_0[2]=   7.1912f
 +0:bs2_0[2]=  15.1362f 0:bs2_0[2]=   7.9353f 0:bs2_0[2]=  43.5628f
 +0:bs2_0[2]=  28.5912f 0:bs2_0[3]=   6.8417f 0:bs2_0[3]=  80.4949f
 +0:bs2_0[3]=  37.8354f 0:bs2_0[3]=   6.8417f 0:bs2_0[3]=  34.0375f
 +0:bs2_0[3]=  33.2949f 0:bs2_0[3]=   6.2066f 0:bs2_0[3]=  45.5856f
 +0:bs2_0[3]=   6.2066f 0:bs2_0[3]=  46.8797f 0:bs2_0[3]=   6.8417f
 +0:bs2_0[3]=   4.1113f 0:bs2_0[3]=   8.7099f 0:bs2_0[3]=   7.1912f
 +0:bs2_0[3]=   8.7099f 0:bs2_0[3]=   8.7099f 0:bs2_0[3]=   7.1912f
 +0:bs2_0[3]=  15.1362f 0:bs2_0[3]=   7.9353f 0:bs2_0[3]=  40.8265f
 +0:bs2_0[3]=  28.5912f 0:bs2_0[4]=   6.8417f 0:bs2_0[4]=  77.8886f
 +0:bs2_0[4]=  43.6372f 0:bs2_0[4]=   6.8417f 0:bs2_0[4]=  34.0375f
 +0:bs2_0[4]=  33.2949f 0:bs2_0[4]=   6.2066f 0:bs2_0[4]=  45.5988f
 +0:bs2_0[4]=   6.2066f 0:bs2_0[4]=  48.5835f 0:bs2_0[4]=   3.6404f
 +0:bs2_0[4]=   6.8417f 0:bs2_0[4]=   8.7099f 0:bs2_0[4]=   7.1912f
 +0:bs2_0[4]=   8.7099f 0:bs2_0[4]=  10.9766f 0:bs2_0[4]=  15.1362f
 +0:bs2_0[4]=   8.7099f 0:bs2_0[4]=   7.9353f 0:bs2_0[4]=  43.4400f
 +0:bs2_0[4]=  28.5912f 0:bs2_0[5]=   6.8417f 0:bs2_0[5]=  75.2824f
 +0:bs2_0[5]=  49.2542f 0:bs2_0[5]=   3.6404f 0:bs2_0[5]=  34.8082f
 +0:bs2_0[5]=  37.1473f 0:bs2_0[5]=   4.1113f 0:bs2_0[5]=  44.4934f
 +0:bs2_0[5]=   4.1113f 0:bs2_0[5]=  48.5835f 0:bs2_0[5]=   3.6404f
 +0:bs2_0[5]=   6.8417f 0:bs2_0[5]=   8.7099f 0:bs2_0[5]=  15.1362f
 +0:bs2_0[5]=  13.6773f 0:bs2_0[5]=  13.6773f 0:bs2_0[5]=  15.1362f
 +0:bs2_0[0]=   6.8417f 0:bs2_0[5]=   8.7099f 0:bs2_0[5]=   7.9353f
 +0:bs2_0[5]=  46.0732f 0:bs2_0[5]=  28.5912f 0:bs2_0[6]=   6.8417f
 +0:bs2_0[6]=  77.9872f 0:bs2_0[6]=  43.5448f 0:bs2_0[6]=   3.6404f
 +0:bs2_0[6]=  34.8082f 0:bs2_0[6]=  37.1473f 0:bs2_0[0]=  75.2824f
 +0:bs2_0[6]=   4.1113f 0:bs2_0[6]=  44.5030f 0:bs2_0[6]=   4.7127f
 +0:bs2_0[6]=  46.8797f 0:bs2_0[6]=   6.8417f 0:bs2_0[6]=   4.1113f
 +0:bs2_0[6]=   8.7099f 0:bs2_0[6]=  15.1362f 0:bs2_0[6]=  13.6773f
 +0:bs2_0[6]=  13.6773f 0:bs2_0[0]=  49.2542f 0:bs2_0[6]=   7.1912f
 +0:bs2_0[6]=  15.1362f 0:bs2_0[6]=   7.9353f 0:bs2_0[6]=  43.5628f
 +0:bs2_0[6]=  28.5912f 0:bs2_0[7]=   6.8417f 0:bs2_0[7]=  80.4949f
 +0:bs2_0[7]=  37.8354f 0:bs2_0[7]=   6.8417f 0:bs2_0[7]=  34.0375f
 +0:bs2_0[0]=   3.6405f 0:bs2_0[7]=  33.2949f 0:bs2_0[7]=   6.2066f
 +0:bs2_0[7]=  45.5856f 0:bs2_0[7]=   6.2066f 0:bs2_0[7]=  46.8797f
 +0:bs2_0[7]=   6.8417f 0:bs2_0[7]=   4.1113f 0:bs2_0[7]=   8.7099f
 +0:bs2_0[7]=   7.1912f 0:bs2_0[7]=   8.7099f 0:bs2_0[0]=  34.6443f
 +0:bs2_0[7]=   8.7099f 0:bs2_0[7]=   7.1912f 0:bs2_0[7]=  15.1362f
 +0:bs2_0[7]=   7.9353f 0:bs2_0[7]=  40.8265f 0:bs2_0[7]=  28.5912f
 +0:bs1_0[0]=   6.8417f 0:bs1_0[0]=  77.9872f 0:bs1_0[0]=  43.5448f
 +0:bs1_0[0]=   3.6404f 0:bs2_0[0]=  37.1473f 0:bs1_0[0]=  37.1473f
 +0:bs1_0[0]=   4.1113f 0:bs1_0[0]=  44.5030f 0:bs1_0[0]=   4.7127f
 +0:bs1_0[0]=  46.8797f 0:bs1_0[0]=   6.8417f 0:bs1_0[0]=   4.1113f
 +0:bs1_0[0]=   8.7099f 0:bs1_0[0]=  15.1362f 0:bs1_0[0]=  13.6773f
 +0:bs2_0[0]=   4.1113f 0:bs1_0[0]=  13.6773f 0:bs1_0[0]=   7.1912f
 +0:bs1_0[0]=  15.1362f 0:bs1_0[0]=   7.9353f 0:bs1_0[0]=  45.6367f
 +0:bs1_0[0]=  29.9125f 0:bs1_0[0]=  70.9461f 0:bs1_0[0]=  13.6597f
 +0:bs1_0[0]=  50.2354f 0:bs1_0[0]=  47.9226f 0:bs2_0[0]=  44.4934f
 +0:bs1_0[0]=  15.1539f 0:bs1_0[0]=  13.6597f 0:bs1_0[0]=  14.7974f
 +0:bs1_0[0]=   4.9936f 0:bs1_0[0]=  23.3649f 0:bs1_0[0]=   5.3797f
 +0:bs1_0[0]=   6.8050f 0:bs1_0[1]=   6.8417f 0:bs1_0[1]=  77.8886f
 +0:bs1_0[1]=  43.6372f 0:bs2_0[0]=   4.1113f 0:bs1_0[1]=   6.8417f
 +0:bs1_0[1]=  34.0293f 0:bs1_0[1]=  33.2949f 0:bs1_0[1]=   6.2066f
 +0:bs1_0[1]=  45.5988f 0:bs1_0[1]=   6.2066f 0:bs1_0[1]=  48.5835f
 +0:bs1_0[1]=   3.6404f 0:bs1_0[1]=   6.8417f 0:bs1_0[1]=   8.7099f
 +0:bs2_0[0]=  48.5835f 0:bs1_0[1]=   7.1912f 0:bs1_0[1]=   8.7099f
 +0:bs1_0[1]=  10.9766f 0:bs1_0[1]=  15.1362f 0:bs1_0[1]=   8.7099f
 +0:bs1_0[1]=   7.9353f 0:bs1_0[1]=  45.6366f 0:bs1_0[1]=  36.8956f
 +0:bs1_0[1]=  75.9678f 0:bs1_0[1]=  15.1186f 0:bs2_0[0]=   3.6404f
 +0:bs1_0[1]=  51.4087f 0:bs1_0[1]=  49.8869f 0:bs1_0[1]=  14.5513f
 +0:bs1_0[1]=  12.4427f 0:bs1_0[1]=  13.3035f 0:bs1_0[1]=   6.1727f
 +0:bs1_0[1]=  16.8443f 0:bs1_0[1]=   5.0086f 0:bs1_0[1]=   5.6215f
 +0:bs1_0[2]=   6.8417f 0:bs2_0[0]=   6.8417f 0:bs1_0[2]=  77.9872f
 +0:bs1_0[2]=  43.5448f 0:bs1_0[2]=   3.6405f 0:bs1_0[2]=  34.6359f
 +0:bs1_0[2]=  37.1473f 0:bs1_0[2]=   4.1113f 0:bs1_0[2]=  44.5030f
 +0:bs1_0[2]=   4.7127f 0:bs1_0[2]=  46.8797f 0:bs1_0[2]=   6.8417f
 +0:bs2_0[0]=   8.7099f 0:bs1_0[2]=   4.1113f 0:bs1_0[2]=   8.7099f
 +0:bs1_0[2]=  15.1358f 0:bs1_0[2]=  13.6773f 0:bs1_0[2]=  13.6773f
 +0:bs1_0[2]=   7.1912f 0:bs1_0[2]=  15.1362f 0:bs1_0[2]=   7.9353f
 +0:bs1_0[2]=  45.6379f 0:bs1_0[2]=  29.9125f 0:bs2_0[0]=  15.1358f
 +0:bs1_0[2]=  70.9461f 0:bs1_0[2]=  13.6597f 0:bs1_0[2]=  50.2354f
 +0:bs1_0[2]=  47.9226f 0:bs1_0[2]=  15.1539f 0:bs1_0[2]=  13.6597f
 +0:bs1_0[2]=  14.7974f 0:bs1_0[2]=   4.9936f 0:bs1_0[2]=  23.3649f
 +0:bs1_0[2]=   5.3797f 0:bs2_0[0]=  13.6773f 0:bs1_0[2]=   6.8050f
 +0:bs1_0[3]=   6.8417f 0:bs1_0[3]=  77.8886f 0:bs1_0[3]=  43.6372f
 +0:bs1_0[3]=   6.8417f 0:bs1_0[3]=  34.0293f 0:bs1_0[3]=  33.2949f
 +0:bs1_0[3]=   6.2066f 0:bs1_0[3]=  45.5988f 0:bs1_0[3]=   6.2066f
 +0:bs2_0[0]=  13.6773f 0:bs1_0[3]=  48.5835f 0:bs1_0[3]=   3.6404f
 +0:bs1_0[3]=   6.8417f 0:bs1_0[3]=   8.7099f 0:bs1_0[3]=   7.1912f
 +0:bs1_0[3]=   8.7099f 0:bs1_0[3]=  10.9766f 0:bs1_0[3]=  15.1362f
 +0:bs1_0[3]=   8.7099f 0:bs1_0[3]=   7.9353f 0:bs2_0[0]=  15.1362f
 +0:bs1_0[3]=  45.6366f 0:bs1_0[3]=  36.8956f 0:bs1_0[3]=  75.9678f
 +0:bs1_0[3]=  15.1186f 0:bs1_0[3]=  51.4087f 0:bs1_0[3]=  49.8871f
 +0:bs1_0[3]=  14.5515f 0:bs1_0[3]=  12.4429f 0:bs1_0[3]=  13.3035f
 +0:bs1_0[3]=   6.1727f 0:bs2_0[0]=   8.7099f 0:bs1_0[3]=  16.8443f
 +0:bs1_0[3]=   5.0086f 0:bs1_0[3]=   5.6214f 0:bs1_0[4]=   6.8417f
 +0:bs1_0[4]=  75.2824f 0:bs1_0[4]=  49.2542f 0:bs1_0[4]=   3.6405f
 +0:bs1_0[4]=  34.6360f 0:bs1_0[4]=  37.1473f 0:bs1_0[4]=   4.1113f
 +0:bs2_0[0]=   7.9353f 0:bs1_0[4]=  44.4934f 0:bs1_0[4]=   4.1113f
 +0:bs1_0[4]=  48.5835f 0:bs1_0[4]=   3.6404f 0:bs1_0[4]=   6.8417f
 +0:bs1_0[4]=   8.7099f 0:bs1_0[4]=  15.1358f 0:bs1_0[4]=  13.6773f
 +0:bs1_0[4]=  13.6773f 0:bs1_0[4]=  15.1362f 0:bs2_0[0]=  46.0745f
 +0:bs1_0[4]=   8.7099f 0:bs1_0[4]=   7.9353f 0:bs1_0[4]=  48.2712f
 +0:bs1_0[4]=  36.8956f 0:bs1_0[4]=  75.9678f 0:bs1_0[4]=  15.1186f
 +0:bs1_0[4]=  51.4087f 0:bs1_0[4]=  49.8869f 0:bs1_0[4]=  14.5513f
 +0:bs1_0[4]=  12.4427f 0:bs2_0[0]=  28.5912f 0:bs1_0[4]=  13.3035f
 +0:bs1_0[4]=   6.1727f 0:bs1_0[4]=  16.8443f 0:bs1_0[4]=   5.0086f
 +0:bs1_0[4]=   5.6215f 0:bs1_0[5]=   6.8417f 0:bs1_0[5]=  77.9872f
 +0:bs1_0[5]=  43.5448f 0:bs1_0[5]=   3.6405f 0:bs1_0[5]=  34.6359f
 +0:bs2_0[1]=   6.8417f 0:bs1_0[5]=  37.1473f 0:bs1_0[5]=   4.1113f
 +0:bs1_0[5]=  44.5030f 0:bs1_0[5]=   4.7127f 0:bs1_0[5]=  46.8797f
 +0:bs1_0[5]=   6.8417f 0:bs1_0[5]=   4.1113f 0:bs1_0[5]=   8.7099f
 +0:bs1_0[5]=  15.1358f 0:bs1_0[5]=  13.6773f 0:bs2_0[1]=  75.2824f
 +0:bs1_0[5]=  13.6773f 0:bs1_0[5]=   7.1912f 0:bs1_0[5]=  15.1362f
 +0:bs1_0[5]=   7.9353f 0:bs1_0[5]=  45.6379f 0:bs1_0[5]=  29.9125f
 +0:bs1_0[5]=  70.9461f 0:bs1_0[5]=  13.6597f 0:bs1_0[5]=  50.2354f
 +0:bs1_0[5]=  47.9226f 0:bs2_0[1]=  49.2542f 0:bs1_0[5]=  15.1539f
 +0:bs1_0[5]=  13.6597f 0:bs1_0[5]=  14.7974f 0:bs1_0[5]=   4.9936f
 +0:bs1_0[5]=  23.3649f 0:bs1_0[5]=   5.3797f 0:bs1_0[5]=   6.8050f
 +0:bs1_0[6]=   6.8417f 0:bs1_0[6]=  77.8886f 0:bs1_0[6]=  43.6372f
 +0:bs2_0[1]=   3.6404f 0:bs1_0[6]=   6.8417f 0:bs1_0[6]=  34.0293f
 +0:bs1_0[6]=  33.2949f 0:bs1_0[6]=   6.2066f 0:bs1_0[6]=  45.5988f
 +0:bs1_0[6]=   6.2066f 0:bs1_0[6]=  48.5835f 0:bs1_0[6]=   3.6404f
 +0:bs1_0[6]=   6.8417f 0:bs1_0[6]=   8.7099f 0:bs2_0[1]=  34.8082f
 +0:bs1_0[6]=   7.1912f 0:bs1_0[6]=   8.7099f 0:bs1_0[6]=  10.9766f
 +0:bs1_0[6]=  15.1362f 0:bs1_0[6]=   8.7099f 0:bs1_0[6]=   7.9353f
 +0:bs1_0[6]=  45.6366f 0:bs1_0[6]=  36.8956f 0:bs1_0[6]=  75.9678f
 +0:bs1_0[6]=  15.1186f 0:bs2_0[1]=  37.1473f 0:bs1_0[6]=  51.4087f
 +0:bs1_0[6]=  49.8871f 0:bs1_0[6]=  14.5515f 0:bs1_0[6]=  12.4429f
 +0:bs1_0[6]=  13.3035f 0:bs1_0[6]=   6.1727f 0:bs1_0[6]=  16.8443f
 +0:bs1_0[6]=   5.0086f 0:bs1_0[6]=   5.6214f 0:bs1_0[7]=   6.8417f
 +0:bs2_0[1]=   4.1113f 0:bs1_0[7]=  75.2824f 0:bs1_0[7]=  49.2542f
 +0:bs1_0[7]=   3.6405f 0:bs1_0[7]=  34.6360f 0:bs1_0[7]=  37.1473f
 +0:bs1_0[7]=   4.1113f 0:bs1_0[7]=  44.4934f 0:bs1_0[7]=   4.1113f
 +0:bs1_0[7]=  48.5835f 0:bs1_0[7]=   3.6404f 0:bs2_0[1]=  44.4934f
 +0:bs1_0[7]=   6.8417f 0:bs1_0[7]=   8.7099f 0:bs1_0[7]=  15.1358f
 +0:bs1_0[7]=  13.6773f 0:bs1_0[7]=  13.6773f 0:bs1_0[7]=  15.1362f
 +0:bs1_0[7]=   8.7099f 0:bs1_0[7]=   7.9353f 0:bs1_0[7]=  48.2712f
 +0:bs1_0[7]=  36.8956f 0:bs2_0[1]=   4.1113f 0:bs1_0[7]=  75.9678f
 +0:bs1_0[7]=  15.1186f 0:bs1_0[7]=  51.4087f 0:bs1_0[7]=  49.8871f
 +0:bs1_0[7]=  14.5515f 0:bs1_0[7]=  12.4429f 0:bs1_0[7]=  13.3035f
 +0:bs1_0[7]=   6.1727f 0:bs1_0[7]=  16.8443f 0:bs1_0[7]=   5.0086f
 +0:bs2_0[1]=  48.5835f 0:bs1_0[7]=   5.6214f 0:bs2_0[1]=   3.6404f
 +0:bs2_0[1]=   6.8417f 0:bs2_0[1]=   8.7099f 0:bs2_0[1]=  15.1362f
 +0:bs2_0[1]=  13.6773f 0:bs2_0[1]=  13.6773f 0:bs1_0[0]=  50.1741f
 +0:bs1_0[0]=  67.4951f 0:bs1_0[0]=  70.5927f 0:bs1_0[0]=  92.9752f
 +0:bs1_0[1]=  43.1402f 0:bs1_0[1]=  67.4563f 0:bs1_0[1]=  78.3803f
 +0:bs1_0[1]=  92.8659f 0:bs1_0[2]=  50.1741f 0:bs1_0[2]=  67.4951f
 +0:bs1_0[2]=  70.5927f 0:bs1_0[2]=  92.9752f 0:bs1_0[3]=  43.1402f
 +0:bs1_0[3]=  67.4694f 0:bs1_0[3]=  78.3803f 0:bs1_0[3]=  92.8660f
 +0:bs1_0[4]=  43.1402f 0:bs1_0[4]=  67.4563f 0:bs1_0[4]=  78.3803f
 +0:bs1_0[4]=  92.8659f 0:bs1_0[5]=  50.1741f 0:bs1_0[5]=  67.4951f
 +0:bs1_0[5]=  70.5927f 0:bs1_0[5]=  92.9752f 0:bs1_0[6]=  43.1402f
 +0:bs1_0[6]=  67.4694f 0:bs1_0[6]=  78.3803f 0:bs1_0[6]=  92.8660f
 +0:bs1_0[7]=  78.3803f 0:bs1_0[7]=  94.3823f 0:bs2_0[0]=  41.7841f
 +0:bs2_0[0]=  51.5185f 0:bs2_0[1]=  51.5185f 0:bs2_0[2]=  55.7785f
 +0:bs2_0[3]=  55.7785f 0:bs2_0[4]=  51.5185f 0:bs2_0[5]=  51.5185f
 +0:bs2_0[6]=  55.7785f 0:bs2_0[7]=  38.8399f 0:c       =   0.     
 +0:clk     = 472.1212f 0:cout    =  40.3827f 0:d       =   0.     
 +0:delay   =  34.8137f 0:en      = 483.9051f 0:init    = 680.5021f
 +0:mcand_0 =  20.9474f 0:mcand_1 =  20.9474f 0:mcand_2 =  20.9474f
 +0:mcand_3 =  20.8538f 0:mcand_4 =  20.9474f 0:mcand_5 =  20.9474f
 +0:mcand_6 =  20.9474f 0:mcand_7 =  20.9474f 0:mplier_0=  11.0270f
 +0:mplier_1=  11.0270f 0:mplier_2=  10.5531f 0:mplier_3=  10.5027f
 +0:mplier_4=  11.0270f 0:mplier_5=  11.0270f 0:mplier_6=  10.5531f
 +0:mplier_7=  10.5531f 0:q_0     = 337.3471f 0:q_1     =  53.5188f
 +0:q_10    =  57.5067f 0:q_11    =  52.7439f 0:q_12    =  52.7439f
 +0:q_13    =  57.4203f 0:q_14    =  52.7439f 0:q_15    =  57.5067f
 +0:q_2     =  48.8064f 0:q_3     =  48.8424f 0:q_4     =  53.5188f
 +0:q_5     =  53.5188f 0:q_6     =  48.8424f 0:q_7     =  48.8064f
 +0:q_8     =  52.7439f 0:q_9     =  52.7439f 0:vdd     =  10.7750p

 

 **** voltage sources

 subckt                                                         
 element  0:va       0:vb       0:vc       0:vd       0:vdd     
  volts      0.         0.         0.         0.         5.0000 
  current    0.         0.         0.         0.        -1.8921m
  power      0.         0.         0.         0.         9.4604m

     total voltage source power dissipation=    9.4604m       watts




 **** mosfets


 subckt                                                                    
 element  0:m1000    0:m1001    0:m1002    0:m1003    0:m1004    0:m1005   
 model    0:cmosntt  0:cmosntt  0:cmosntt  0:cmosntt  0:cmosntt  0:cmosntt 
 region       Linear     Linear     Cutoff     Cutoff     Cutoff     Cutoff
  id         8.7508p    8.7508p  399.2158f   12.1554p    0.       -24.5061f
  ibs        0.         0.         0.         0.         0.         0.     
  ibd        0.         0.         0.         0.         0.         0.     
  vgs        5.0000     5.0000    80.8547m  810.9581m   -5.0000    -1.2439 
  vds       11.1858n   11.1858n    4.1890   810.9580m   -3.7561    -1.2439 
  vbs        0.       -11.1858n    0.        -4.1890    -5.0000    -1.2439 
  vth      699.7240m  699.7240m  647.1854m    1.1767   896.2738m  684.1235m
  vdsat      1.4215     1.4215    42.2397m   52.3970m   47.5097m   42.2420m
  vod        4.3003     4.3003  -566.3308m -365.7471m   -5.8963    -1.9280 
  beta     388.6356u  388.6356u  463.6336u  424.9800u  447.5141u  462.7920u
  gam eff    1.0307     1.0307     1.0307     1.3132     1.1430     1.0307 
  gm       599.1739f  599.1739f    9.2862p  325.3336p    0.       570.2361f
  gds      782.3150u  782.3150u  129.4311f    6.0938p    0.         8.1345f
  gmb      508.7354f  508.7354f    3.5317p   16.3919p    0.       229.2590f
  cdtot      5.7055f    6.8732f    3.1393f    4.0528f    3.6102f  501.1063a
  cgtot      4.8182f    4.8182f    2.7990f    2.0619f    2.7471f    2.8673f
  cstot      1.1202p    1.1362f  501.1090a  501.1700a  501.1061a  501.1061a
  cbtot      1.1248p    6.9007f    4.6351f    4.6827f    5.0363f    2.0730f
  cgs        1.6775f    1.6775f  316.4429a  437.9104a  485.2295a  484.8451a
  cgd        2.0893f    2.0893f  485.6628a  492.9770a  334.6526a  309.3903a



 subckt                                                                    
 element  0:m1006    0:m1007    0:m1008    0:m1009    0:m1010    0:m1011   
 model    0:cmosntt  0:cmosntt  0:cmosntt  0:cmosntt  0:cmosntt  0:cmosntt 
 region       Linear     Cutoff     Cutoff     Cutoff     Cutoff     Linear
  id        10.0100p   24.5061f    0.       -11.8209p  -60.8705f   46.4383p
  ibs        0.         0.         0.         0.         0.         0.     
  ibd        0.         0.         0.         0.         0.         0.     
  vgs        5.0000    12.7954n   -1.2439    72.9561n   -4.1900     5.0000 
  vds       12.7954n    1.2439     3.7561  -809.9830m   -4.1900    59.3601n
  vbs        0.         0.        -1.2439    -5.0000    -4.1900     0.     
  vth      699.7240m  684.1235m  896.2738m    1.1768   647.1732m  699.7240m
  vdsat      1.4215    42.2420m   47.5097m   52.3981m   42.2397m    1.4215 
  vod        4.3003  -684.1235m   -2.1401    -1.1768    -4.8372     4.3003 
  beta     388.6356u  462.7920u  447.5141u  424.9742u  463.6339u  388.6356u
  gam eff    1.0307     1.0307     1.1430     1.3132     1.0307     1.0307 
  gm       685.3921f  570.2361f    0.       316.3946p    1.4163p    3.1796p
  gds      782.3150u    8.1345f    0.         5.9284p   19.7438f  782.3149u
  gmb      581.9399f  229.2590f    0.        15.9385p  557.6385f    2.6997p
  cdtot      6.8732f    3.6102f    4.0528f    3.1393f  501.1065a    5.7055f
  cgtot      4.8182f    2.8673f    2.7471f    2.0619f    2.8454f    4.8182f
  cstot      1.1362f  501.1063a  501.1061a  501.1052a  501.1061a    1.1362f
  cbtot      6.9007f    5.1821f    5.4789f    3.7691f    2.0505f    5.7330f
  cgs        1.6775f  309.3903a  334.6526a  492.9768a  485.1066a    1.6775f
  cgd        2.0893f  484.8451a  485.2295a  437.9113a  309.7882a    2.0893f



 subckt                                                                    
 element  0:m1012    0:m1013    0:m1014    0:m1015    0:m1016    0:m1017   
 model    0:cmosntt  0:cmosptt  0:cmosptt  0:cmosptt  0:cmosptt  0:cmosptt 
 region       Linear     Cutoff     Cutoff     Linear     Linear     Cutoff
  id        46.4383p   -3.3735f    0.       -26.7225p  -26.7225p  5.402e-21
  ibs        0.         0.         0.         0.         0.         0.     
  ibd        0.         0.         0.         0.         0.         0.     
  vgs        5.0000    -6.6711n    1.2492    -4.9191    -5.0000    74.3923n
  vds       59.3601n   -1.2492    -3.7508   -40.7438n  -40.3197n   81.0634n
  vbs      -59.3601n    0.         1.2492     0.        40.7438n   81.0634n
  vth      699.7240m -849.7164m   -1.0743  -855.7622m -855.7622m -855.7622m
  vdsat      1.4215   -48.7786m  -53.0135m   -2.2907    -2.3271   -48.7798m
  vod        4.3003   849.7164m    2.3234    -4.0634    -4.1442   855.7622m
  beta     388.6356u  363.0430u  333.6194u  229.8256u  228.3604u  362.3202u
  gam eff    1.0307   536.7083m  525.9594m  536.7083m  536.7083m  536.7083m
  gm         3.1796p   76.1495f    0.         3.4982p    3.4187p  1.219e-19
  gds      782.3149u    1.2451f    0.       655.8663u  662.7649u   66.6371f
  gmb        2.6997p   30.8302f    0.         2.0673p    2.0363p  5.005e-20
  cdtot     11.7514f    7.1345f    6.5971f   12.1015f   16.6326f    9.4012f
  cgtot      4.8182f    6.1535f    6.0166f   10.2469f   10.2469f    6.1666f
  cstot      1.1362f    2.2796p    1.5754f    3.0347f    3.0343f    1.5754f
  cbtot     11.7789f    2.2866p    7.9884f   10.3137f   14.8443f   10.9438f
  cgs        1.6775f    1.4826f    1.4877f    4.6540f    4.6535f    1.5639f
  cgd        2.0893f    1.5640f    1.5622f    4.8193f    4.8198f    1.4847f



 subckt                                                                    
 element  0:m1018    0:m1019    0:m1020    0:m1021    0:m1022    0:m1023   
 model    0:cmosptt  0:cmosptt  0:cmosptt  0:cmosptt  0:cmosptt  0:cmosptt 
 region       Linear     Cutoff     Linear     Cutoff     Linear     Linear
  id       5.887e-19  -10.0468f -5.887e-19 -5.306e-21   26.3870p   26.3870p
  ibs        0.         0.         0.         0.         0.         0.     
  ibd        0.         0.         0.         0.         0.         0.     
  vgs       -5.0000   -81.0634n   -5.0000    -6.6711n   -5.0000    -5.0000 
  vds      888.1784a   -5.0000  -888.1784a  -79.6272n   39.8136n   39.8136n
  vbs      888.1784a    0.         0.       888.1784a   79.6272n   39.8136n
  vth     -855.7622m -831.5629m -855.7622m -855.7622m -855.7622m -855.7622m
  vdsat     -2.3271   -48.7748m   -2.3271   -48.7798m   -2.3271    -2.3271 
  vod       -4.1442   831.5628m   -4.1442   855.7621m   -4.1442    -4.1442 
  beta     228.3604u  365.2332u  228.3604u  362.3202u  228.3604u  228.3604u
  gam eff  536.7083m  536.7083m  536.7083m  536.7083m  536.7083m  536.7083m
  gm       7.531e-20  226.7840f  7.531e-20  1.198e-19    3.3758p    3.3758p
  gds      662.7649u    2.4318f  662.7649u   66.6371f  662.7649u  662.7649u
  gmb      4.486e-20   90.4979f  4.486e-20  4.916e-20    2.0108p    2.0108p
  cdtot      3.0343f    6.5971f   12.1019f   13.9318f   10.8601f    3.0343f
  cgtot     10.2469f    6.1152f   10.2469f    6.1666f   10.2469f   10.2469f
  cstot      4.2762f    1.5754f    3.0343f    1.5754f    4.2762f    4.2762f
  cbtot      2.4879f    8.0963f   10.3136f   15.4744f   10.3136f    2.4879f
  cgs        4.8198f    1.4765f    4.6535f    1.4847f    4.8198f    4.8198f
  cgd        4.6535f    1.5641f    4.8198f    1.5639f    4.6535f    4.6535f



 subckt                                                                    
 element  0:m1024    0:m1025    0:m1026    0:m1027    0:m1028    0:m1029   
 model    0:cmosptt  0:cmosptt  0:cmosptt  0:cmosptt  0:cmosntt  0:cmosntt 
 region       Cutoff     Cutoff     Linear     Linear     Cutoff     Cutoff
  id        -3.3735f    0.        -4.4214p    4.4214p  371.0568f  1.046e-28
  ibs        0.         0.         0.         0.         0.         0.     
  ibd        0.         0.         0.         0.         0.         0.     
  vgs      -79.6272n    1.2492    -5.0000    -5.0000     0.        -1.1572 
  vds       -1.2492    -3.7508    -6.6711n    6.6711n    1.1572     3.8428 
  vbs        0.         1.2492     0.         6.6711n    0.        -1.1572 
  vth     -849.7164m   -1.0743  -855.7622m -855.7622m  602.6323m  792.3957m
  vdsat    -48.7786m  -53.0135m   -2.3271    -2.3271    43.6805m   48.1266m
  vod      849.7163m    2.3234    -4.1442    -4.1442  -602.6323m   -1.9496 
  beta     363.0430u  333.6194u  228.3604u  228.3604u    1.0209m    1.0021m
  gam eff  536.7083m  525.9594m  536.7083m  536.7083m    1.0081     1.1016 
  gm        76.1496f    0.       565.6431f  565.6431f    8.6326p  2.680e-27
  gds        1.2451f    0.       662.7649u  662.7649u  125.1505f    0.     
  gmb       30.8303f    0.       336.9207f  336.9207f    3.2954p  5.689e-28
  cdtot      7.1345f    9.3444f   16.6326f    3.0343f    6.8342f    6.7565f
  cgtot      6.1535f    6.0166f   10.2469f   10.2469f    5.5650f    5.3280f
  cstot      1.5754f    1.5754f    3.0343f    4.2762f    1.1011f    1.1011f
  cbtot      8.6660f   10.7358f   14.8443f    2.4879f    9.5565f    9.1899f
  cgs        1.4826f    1.4877f    4.6535f    4.8198f  674.9384a  726.1975a
  cgd        1.5640f    1.5622f    4.8198f    4.6535f    1.0666f    1.0674f



 subckt                                                                    
 element  0:m1030    0:m1031    0:m1032    0:m1033    0:m1034    0:m1035   
 model    0:cmosptt  0:cmosntt  0:cmosptt  0:cmosptt  0:cmosntt  0:cmosntt 
 region       Linear     Cutoff     Cutoff     Cutoff     Linear     Cutoff
  id       -10.0818p   81.7995f    0.         0.        32.6874p   24.5060f
  ibs        0.         0.         0.         0.         0.         0.     
  ibd        0.         0.         0.         0.         0.         0.     
  vgs       -5.0000     0.      -118.7201n    5.0000     5.0000  -160.5031n
  vds      -15.2117n    5.0000    41.7829n    1.2439    41.7829n    1.2439 
  vbs        0.         0.         5.0000     5.0000  -118.7201n -160.5031n
  vth     -855.7622m  637.0145m   -1.5195    -1.3995   699.7240m  684.1235m
  vdsat     -2.3271    42.2390m  -57.5248m  -56.2881m    1.4215    42.2420m
  vod       -4.1442  -637.0145m    1.5195     6.3995     4.3003  -684.1237m
  beta     228.3604u  463.8595u  124.2790u  130.5802u  388.6356u  462.7920u
  gam eff  536.7083m    1.0307   497.8250m  504.3176m    1.0307     1.0307 
  gm         1.2898p    1.9032p    0.         0.         2.2381p  570.2330f
  gds      662.7649u   34.5733f  1.260e-23    0.       782.3149u    8.1345f
  gmb      768.2592f  745.0808f    0.         0.         1.9003p  229.2577f
  cdtot     15.1224f    3.7250f    9.3077f    3.7208f   17.2134f    4.4973f
  cgtot     10.2469f    2.8395f    2.2439f    2.9164f    4.8182f    2.8673f
  cstot      3.0343f  501.1066a  705.3938a  705.3938a    1.1362f  501.1063a
  cbtot     13.3341f    5.2684f    9.4461f    4.5553f   17.2410f    6.0693f
  cgs        4.6535f  309.8869a  702.3300a  697.6463a    1.6775f  309.3903a
  cgd        4.8198f  485.1763a  697.8518a  678.7638a    2.0893f  484.8451a



 subckt                                                                    
 element  0:m1036    0:m1037    0:m1038    0:m1039    0:m1040    0:m1041   
 model    0:cmosntt  0:cmosntt  0:cmosptt  0:cmosptt  0:cmosptt  0:cmosptt 
 region       Linear     Cutoff     Cutoff     Cutoff     Cutoff     Cutoff
  id         9.5014p  -13.4598f    0.         0.       -10.0468f    0.     
  ibs        0.         0.         0.         0.         0.         0.     
  ibd        0.         0.         0.         0.         0.         0.     
  vgs        4.9191   -80.8547m  -80.8547m    4.9191   -94.3220n    5.0000 
  vds       12.2712n  -80.8545m   12.2712n  -80.8545m   -5.0000     1.8713 
  vbs      -80.8547m  -80.8547m    4.9191     4.9191     0.         5.0000 
  vth      722.8065m  698.7100m   -1.5128    -1.5120  -831.5629m   -1.3335 
  vdsat      1.4008    42.2429m  -57.4495m  -57.4494m  -48.7748m  -55.5802m
  vod        4.1963  -779.5647m    1.4319     6.4312   831.5628m    6.3335 
  beta     389.1864u  462.4505u  124.6389u  124.6641u  365.2332u  134.1466u
  gam eff    1.0399     1.0307   498.2246m  498.2246m  536.7083m  507.9283m
  gm       690.3288f  313.2036f    0.         0.       226.7841f    0.     
  gds      774.2854u   30.0706f  1.352e-22    0.         2.4318f    0.     
  gmb      532.2742f  127.1089f    0.         0.        90.4980f    0.     
  cdtot      7.3223f  501.1062a    3.8301f  705.3938a    6.5971f    4.3249f
  cgtot      4.8182f    2.8762f    2.2440f    2.8958f    6.1152f    2.9297f
  cstot     10.6854f  501.1061a    8.5172f  705.3938a    1.5754f  652.8640f
  cbtot     16.8642f    2.0823f   11.7804f    1.5151f    8.0963f  657.3336f
  cgs        1.6807f  484.7382a  702.3527a  683.8786a    1.4765f  698.0744a
  cgd        2.0889f  309.2153a  697.7555a  696.8534a    1.5641f  676.0871a



 subckt                                                                    
 element  0:m1042    0:m1043    0:m1044    0:m1045    0:m1046    0:m1047   
 model    0:cmosptt  0:cmosntt  0:cmosntt  0:cmosntt  0:cmosntt  0:cmosntt 
 region       Linear     Cutoff     Linear     Linear     Linear     Linear
  id       123.9148f   29.9550f    1.1336p   10.0100p    8.7508p    8.7508p
  ibs        0.         0.         0.         0.         0.         0.     
  ibd        0.         0.         0.         0.         0.         0.     
  vgs       -1.8713    12.7954n    3.1287     5.0000     5.0000     5.0000 
  vds        2.0741n    1.8713     2.0741n   12.7954n   11.1858n   11.1858n
  vbs        3.1287     0.        -1.8713     0.         0.       -11.1858n
  vth       -1.3476   676.2549m    1.0220   699.7240m  699.7240m  699.7240m
  vdsat   -497.1481m   42.2415m  901.5068m    1.4215     1.4215     1.4215 
  vod     -523.6633m -676.2549m    2.1067     4.3003     4.3003     4.3003 
  beta     125.2952u  462.9741u  408.5094u  388.6356u  388.6356u  388.6356u
  gam eff  507.9283m    1.0307     1.1862     1.0307     1.0307     1.0307 
  gm       212.0122f  697.0186f  304.0556f  685.3921f  599.1739f  599.1739f
  gds       59.7448u    9.3368f  546.5461u  782.3150u  782.3150u  782.3150u
  gmb       26.5203f  278.9847f   52.8781f  581.9399f  508.7354f  508.7354f
  cdtot      4.5206f    4.6882f    5.5483f    6.8732f    5.7055f    6.8732f
  cgtot      4.8586f    2.8625f    4.8187f    4.8182f    4.8182f    4.8182f
  cstot      1.7142f  501.1063a    1.0468f    1.1362f    1.1362f    1.1362f
  cbtot      4.0949f    6.2552f    5.1386f    6.9007f    5.7330f    6.9007f
  cgs        2.0840f  309.4803a    1.7275f    1.6775f    1.6775f    1.6775f
  cgd        2.1777f  484.9018a    2.0744f    2.0893f    2.0893f    2.0893f



 subckt                                                                    
 element  0:m1048    0:m1049    0:m1050    0:m1051    0:m1052    0:m1053   
 model    0:cmosntt  0:cmosntt  0:cmosntt  0:cmosntt  0:cmosntt  0:cmosntt 
 region       Cutoff     Cutoff     Cutoff     Cutoff     Linear     Cutoff
  id        60.8706f   11.8209p    0.       -24.5061f   10.0100p   24.5061f
  ibs        0.         0.         0.         0.         0.         0.     
  ibd        0.         0.         0.         0.         0.         0.     
  vgs      173.2856n  809.9831m   -5.0000    -1.2439     5.0000    12.7954n
  vds        4.1900   809.9830m   -3.7561    -1.2439    12.7954n    1.2439 
  vbs        0.        -4.1900    -5.0000    -1.2439     0.         0.     
  vth      647.1732m    1.1768   896.2738m  684.1235m  699.7240m  684.1235m
  vdsat     42.2397m   52.3981m   47.5097m   42.2420m    1.4215    42.2420m
  vod     -647.1730m -366.7854m   -5.8963    -1.9280     4.3003  -684.1235m
  beta     463.6339u  424.9742u  447.5141u  462.7920u  388.6356u  462.7920u
  gam eff    1.0307     1.3132     1.1430     1.0307     1.0307     1.0307 
  gm         1.4163p  316.3946p    0.       570.2361f  685.3921f  570.2361f
  gds       19.7438f    5.9284p    0.         8.1345f  782.3150u    8.1345f
  gmb      557.6392f   15.9385p    0.       229.2590f  581.9399f  229.2590f
  cdtot      3.1392f    4.0528f    3.6102f  501.1063a    6.8732f    3.6102f
  cgtot      2.8454f    2.0619f    2.7471f    2.8673f    4.8182f    2.8673f
  cstot    501.1065a  501.1682a  501.1061a  501.1061a    1.1362f  501.1063a
  cbtot      4.6886f    4.6827f    5.0363f    2.0730f    6.9007f    5.1821f
  cgs      309.7882a  437.9113a  485.2295a  484.8451a    1.6775f  309.3903a
  cgd      485.1066a  492.9768a  334.6526a  309.3903a    2.0893f  484.8451a



 subckt                                                                    
 element  0:m1054    0:m1055    0:m1056    0:m1057    0:m1058    0:m1059   
 model    0:cmosntt  0:cmosntt  0:cmosntt  0:cmosntt  0:cmosntt  0:cmosptt 
 region       Cutoff     Cutoff     Cutoff     Linear     Linear     Cutoff
  id         0.       -11.8209p  -60.8706f   56.3481p   56.3481p   -3.3735f
  ibs        0.         0.         0.         0.         0.         0.     
  ibd        0.         0.         0.         0.         0.         0.     
  vgs       -1.2439    72.9561n   -4.1900     5.0000     5.0000    -6.6711n
  vds        3.7561  -809.9830m   -4.1900    72.0274n   72.0274n   -1.2492 
  vbs       -1.2439    -5.0000    -4.1900     0.       -72.0274n    0.     
  vth      896.2738m    1.1768   647.1732m  699.7240m  699.7240m -849.7164m
  vdsat     47.5097m   52.3981m   42.2397m    1.4215     1.4215   -48.7786m
  vod       -2.1401    -1.1768    -4.8372     4.3003     4.3003   849.7164m
  beta     447.5141u  424.9742u  463.6339u  388.6356u  388.6356u  363.0430u
  gam eff    1.1430     1.3132     1.0307     1.0307     1.0307   536.7083m
  gm         0.       316.3946p    1.4163p    3.8582p    3.8582p   76.1495f
  gds        0.         5.9284p   19.7438f  782.3149u  782.3149u    1.2451f
  gmb        0.        15.9385p  557.6389f    3.2758p    3.2758p   30.8302f
  cdtot      4.0528f    3.1393f  501.1065a    5.7055f   11.7514f    7.1345f
  cgtot      2.7471f    2.0619f    2.8454f    4.8182f    4.8182f    6.1535f
  cstot    501.1061a  501.1052a  501.1061a    1.1362f    1.1362f    1.5754f
  cbtot      5.4789f    3.7691f    2.0505f    5.7330f   11.7789f    8.6660f
  cgs      334.6526a  492.9768a  485.1066a    1.6775f    1.6775f    1.4826f
  cgd      485.2295a  437.9113a  309.7882a    2.0893f    2.0893f    1.5640f



 subckt                                                                    
 element  0:m1060    0:m1061    0:m1062    0:m1063    0:m1064    0:m1065   
 model    0:cmosptt  0:cmosptt  0:cmosptt  0:cmosptt  0:cmosptt  0:cmosptt 
 region       Cutoff     Linear     Linear     Cutoff     Linear     Cutoff
  id         0.       -26.3870p  -26.3870p  5.306e-21  5.887e-19  -10.0468f
  ibs        0.         0.         0.         0.         0.         0.     
  ibd        0.         0.         0.         0.         0.         0.     
  vgs        1.2492    -5.0000    -5.0000    72.9561n   -5.0000   -79.6272n
  vds       -3.7508   -39.8136n  -39.8136n   79.6272n  888.1784a   -5.0000 
  vbs        1.2492     0.        39.8136n   79.6272n  888.1784a    0.     
  vth       -1.0743  -855.7622m -855.7622m -855.7622m -855.7622m -831.5629m
  vdsat    -53.0135m   -2.3271    -2.3271   -48.7798m   -2.3271   -48.7748m
  vod        2.3234    -4.1442    -4.1442   855.7622m   -4.1442   831.5628m
  beta     333.6194u  228.3604u  228.3604u  362.3202u  228.3604u  365.2332u
  gam eff  525.9594m  536.7083m  536.7083m  536.7083m  536.7083m  536.7083m
  gm         0.         3.3758p    3.3758p  1.198e-19  7.531e-20  226.7840f
  gds        0.       662.7649u  662.7649u   66.6371f  662.7649u    2.4318f
  gmb        0.         2.0108p    2.0108p  4.916e-20  4.486e-20   90.4979f
  cdtot      6.5971f   12.1019f   16.6326f    9.4012f    3.0343f    6.5971f
  cgtot      6.0166f   10.2469f   10.2469f    6.1666f   10.2469f    6.1152f
  cstot      1.5754f    3.0343f    3.0343f    1.5754f    4.2762f    1.5754f
  cbtot      7.9884f   10.3136f   14.8443f   10.9438f    2.4879f    8.0963f
  cgs        1.4877f    4.6535f    4.6535f    1.5639f    4.8198f    1.4765f
  cgd        1.5622f    4.8198f    4.8198f    1.4847f    4.6535f    1.5641f



 subckt                                                                    
 element  0:m1066    0:m1067    0:m1068    0:m1069    0:m1070    0:m1071   
 model    0:cmosptt  0:cmosptt  0:cmosptt  0:cmosptt  0:cmosptt  0:cmosptt 
 region       Linear     Cutoff     Linear     Linear     Cutoff     Cutoff
  id      -5.887e-19 -5.306e-21   26.3870p   26.3870p   -3.3735f    0.     
  ibs        0.         0.         0.         0.         0.         0.     
  ibd        0.         0.         0.         0.         0.         0.     
  vgs       -5.0000    -6.6711n   -5.0000    -5.0000   -79.6272n    1.2492 
  vds     -888.1784a  -79.6272n   39.8136n   39.8136n   -1.2492    -3.7508 
  vbs        0.       888.1784a   79.6272n   39.8136n    0.         1.2492 
  vth     -855.7622m -855.7622m -855.7622m -855.7622m -849.7164m   -1.0743 
  vdsat     -2.3271   -48.7798m   -2.3271    -2.3271   -48.7786m  -53.0135m
  vod       -4.1442   855.7621m   -4.1442    -4.1442   849.7163m    2.3234 
  beta     228.3604u  362.3202u  228.3604u  228.3604u  363.0430u  333.6194u
  gam eff  536.7083m  536.7083m  536.7083m  536.7083m  536.7083m  525.9594m
  gm       7.531e-20  1.198e-19    3.3758p    3.3758p   76.1496f    0.     
  gds      662.7649u   66.6371f  662.7649u  662.7649u    1.2451f    0.     
  gmb      4.486e-20  4.916e-20    2.0108p    2.0108p   30.8303f    0.     
  cdtot     12.1019f   13.9318f   10.8601f    3.0343f    7.1345f    9.3444f
  cgtot     10.2469f    6.1666f   10.2469f   10.2469f    6.1535f    6.0166f
  cstot      3.0343f    1.5754f    4.2762f    4.2762f    1.5754f    1.5754f
  cbtot     10.3136f   15.4744f   10.3136f    2.4879f    8.6660f   10.7358f
  cgs        4.6535f    1.4847f    4.8198f    4.8198f    1.4826f    1.4877f
  cgd        4.8198f    1.5639f    4.6535f    4.6535f    1.5640f    1.5622f



 subckt                                                                    
 element  0:m1072    0:m1073    0:m1074    0:m1075    0:m1076    0:m1077   
 model    0:cmosptt  0:cmosptt  0:cmosntt  0:cmosntt  0:cmosptt  0:cmosntt 
 region       Linear     Linear     Cutoff     Cutoff     Linear     Cutoff
  id        -4.4214p    4.4214p  371.0568f  1.046e-28  -10.0818p   81.7995f
  ibs        0.         0.         0.         0.         0.         0.     
  ibd        0.         0.         0.         0.         0.         0.     
  vgs       -5.0000    -5.0000     0.        -1.1572    -5.0000     0.     
  vds       -6.6711n    6.6711n    1.1572     3.8428   -15.2117n    5.0000 
  vbs        0.         6.6711n    0.        -1.1572     0.         0.     
  vth     -855.7622m -855.7622m  602.6323m  792.3957m -855.7622m  637.0145m
  vdsat     -2.3271    -2.3271    43.6805m   48.1266m   -2.3271    42.2390m
  vod       -4.1442    -4.1442  -602.6323m   -1.9496    -4.1442  -637.0145m
  beta     228.3604u  228.3604u    1.0209m    1.0021m  228.3604u  463.8595u
  gam eff  536.7083m  536.7083m    1.0081     1.1016   536.7083m    1.0307 
  gm       565.6431f  565.6431f    8.6326p  2.680e-27    1.2898p    1.9032p
  gds      662.7649u  662.7649u  125.1505f    0.       662.7649u   34.5733f
  gmb      336.9207f  336.9207f    3.2954p  5.689e-28  768.2592f  745.0808f
  cdtot     16.6326f    3.0343f    6.8342f    6.7565f   15.1224f    3.7250f
  cgtot     10.2469f   10.2469f    5.5650f    5.3280f   10.2469f    2.8395f
  cstot      3.0343f    4.2762f    1.1011f    1.1011f    3.0343f  501.1066a
  cbtot     14.8443f    2.4879f    9.5565f    9.1899f   13.3341f    5.2684f
  cgs        4.6535f    4.8198f  674.9384a  726.1975a    4.6535f  309.8869a
  cgd        4.8198f    4.6535f    1.0666f    1.0674f    4.8198f  485.1763a



 subckt                                                                    
 element  0:m1078    0:m1079    0:m1080    0:m1081    0:m1082    0:m1083   
 model    0:cmosptt  0:cmosptt  0:cmosntt  0:cmosntt  0:cmosntt  0:cmosntt 
 region       Cutoff     Cutoff     Linear     Cutoff     Linear     Cutoff
  id         0.         0.        42.5973p   24.5060f   10.0000p  1.231e-20
  ibs        0.         0.         0.         0.         0.         0.     
  ibd        0.         0.         0.         0.         0.         0.     
  vgs     -144.0549n    5.0000     5.0000  -198.5052n    5.0000  -173.2856n
  vds       54.4503n    1.2439    54.4503n    1.2439    12.7826n   25.2196n
  vbs        5.0000     5.0000  -144.0549n -198.5052n -160.5031n -173.2856n
  vth       -1.5195    -1.3995   699.7241m  684.1235m  699.7241m  699.7241m
  vdsat    -57.5248m  -56.2881m    1.4215    42.2420m    1.4215    42.2430m
  vod        1.5195     6.3995     4.3003  -684.1237m    4.3003  -699.7242m
  beta     124.2790u  130.5802u  388.6356u  462.7920u  388.6356u  462.4266u
  gam eff  497.8250m  504.3176m    1.0307     1.0307     1.0307     1.0307 
  gm         0.         0.         2.9167p  570.2323f  684.7042f  2.864e-19
  gds      1.260e-23    0.       782.3149u    8.1345f  782.3149u  487.9793f
  gmb        0.         0.         2.4764p  229.2575f  581.3558f  1.179e-19
  cdtot      9.3077f    3.7208f   17.2134f    4.4973f    7.4570f  501.1062a
  cgtot      2.2439f    2.9164f    4.8182f    2.8673f    4.8182f    2.8769f
  cstot    705.3938a  705.3938a    1.1362f  501.1063a    1.1362f  501.1061a
  cbtot      9.4461f    4.5553f   17.2410f    6.0693f    7.4846f    2.0829f
  cgs      702.3300a  697.6463a    1.6775f  309.3903a    1.6775f  309.2027a
  cgd      697.8518a  678.7638a    2.0893f  484.8451a    2.0893f  484.7309a



 subckt                                                                    
 element  0:m1084    0:m1085    0:m1086    0:m1087    0:m1088    0:m1089   
 model    0:cmosptt  0:cmosptt  0:cmosptt  0:cmosptt  0:cmosptt  0:cmosntt 
 region       Cutoff     Cutoff     Cutoff     Cutoff     Linear     Cutoff
  id         0.         0.       -10.0468f    0.       123.9148f   29.9550f
  ibs        0.         0.         0.         0.         0.         0.     
  ibd        0.         0.         0.         0.         0.         0.     
  vgs     -160.5031n    5.0000   -94.3220n    5.0000    -1.8713    12.7954n
  vds       12.7826n   25.2196n   -5.0000     1.8713     2.0741n    1.8713 
  vbs        5.0000     5.0000     0.         5.0000     3.1287     0.     
  vth       -1.5195    -1.5195  -831.5629m   -1.3335    -1.3476   676.2549m
  vdsat    -57.5248m  -57.5248m  -48.7748m  -55.5802m -497.1481m   42.2415m
  vod        1.5195     6.5195   831.5628m    6.3335  -523.6633m -676.2549m
  beta     124.2790u  124.2790u  365.2332u  134.1466u  125.2952u  462.9741u
  gam eff  497.8250m  497.8250m  536.7083m  507.9283m  507.9283m    1.0307 
  gm         0.         0.       226.7841f    0.       212.0122f  697.0186f
  gds      1.260e-23    0.         2.4318f    0.        59.7448u    9.3368f
  gmb        0.         0.        90.4980f    0.        26.5203f  278.9847f
  cdtot      3.8130f  705.3938a    6.5971f    4.3249f    4.5206f    4.6882f
  cgtot      2.2439f    2.8946f    6.1152f    2.9297f    4.8586f    2.8625f
  cstot    705.3938a  705.3938a    1.5754f  705.3938a    1.7142f  501.1063a
  cbtot      3.9514f    1.5136f    8.0963f    5.1750f    4.0949f    6.2552f
  cgs      702.3300a  696.7981a    1.4765f  698.0744a    2.0840f  309.4803a
  cgd      697.8518a  684.2357a    1.5641f  676.0871a    2.1777f  484.9018a



 subckt                                                                    
 element  0:m1090    0:m1091    0:m1092    0:m1093    0:m1094    0:m1095   
 model    0:cmosntt  0:cmosntt  0:cmosntt  0:cmosntt  0:cmosntt  0:cmosntt 
 region       Linear     Linear     Linear     Linear     Cutoff     Cutoff
  id         1.1336p   10.0100p    8.7508p    8.7508p   60.8707f   11.8209p
  ibs        0.         0.         0.         0.         0.         0.     
  ibd        0.         0.         0.         0.         0.         0.     
  vgs        3.1287     5.0000     5.0000     5.0000   224.1791n  809.9831m
  vds        2.0741n   12.7954n   11.1858n   11.1858n    4.1900   809.9830m
  vbs       -1.8713     0.         0.       -11.1858n    0.        -4.1900 
  vth        1.0220   699.7240m  699.7240m  699.7240m  647.1732m    1.1768 
  vdsat    901.5068m    1.4215     1.4215     1.4215    42.2397m   52.3981m
  vod        2.1067     4.3003     4.3003     4.3003  -647.1730m -366.7854m
  beta     408.5094u  388.6356u  388.6356u  388.6356u  463.6339u  424.9742u
  gam eff    1.1862     1.0307     1.0307     1.0307     1.0307     1.3132 
  gm       304.0556f  685.3921f  599.1739f  599.1739f    1.4163p  316.3946p
  gds      546.5461u  782.3150u  782.3150u  782.3150u   19.7438f    5.9284p
  gmb       52.8781f  581.9399f  508.7354f  508.7354f  557.6399f   15.9385p
  cdtot      5.5483f    6.8732f    5.7055f    6.8732f    3.1392f    4.0528f
  cgtot      4.8187f    4.8182f    4.8182f    4.8182f    2.8454f    2.0619f
  cstot      1.0468f    1.1362f    1.1362f    1.1362f  501.1065a  501.1682a
  cbtot      5.1386f    6.9007f    5.7330f    6.9007f    4.6886f    4.6827f
  cgs        1.7275f    1.6775f    1.6775f    1.6775f  309.7882a  437.9113a
  cgd        2.0744f    2.0893f    2.0893f    2.0893f  485.1066a  492.9768a



 subckt                                                                    
 element  0:m1096    0:m1097    0:m1098    0:m1099    0:m1100    0:m1101   
 model    0:cmosntt  0:cmosntt  0:cmosntt  0:cmosntt  0:cmosntt  0:cmosntt 
 region       Cutoff     Cutoff     Linear     Cutoff     Cutoff     Linear
  id         0.       -24.5061f   10.0100p  1.010e-20  2.367e-20  -27.0728p
  ibs        0.         0.         0.         0.         0.         0.     
  ibd        0.         0.         0.         0.         0.         0.     
  vgs       -5.0000    -1.2439     5.0000    12.7954n    1.6749n    5.0000 
  vds       -3.7561    -1.2439    12.7954n   20.6968n   48.5153n  -34.6061n
  vbs       -5.0000    -1.2439     0.         0.       -20.6968n  -69.2121n
  vth      896.2738m  684.1235m  699.7240m  699.7240m  699.7240m  699.7240m
  vdsat     47.5097m   42.2420m    1.4215    42.2430m   42.2430m    1.4215 
  vod       -5.8963    -1.9280     4.3003  -699.7240m -699.7240m    4.3003 
  beta     447.5141u  462.7920u  388.6356u  462.4266u  462.4266u  388.6356u
  gam eff    1.1430     1.0307     1.0307     1.0307     1.0307     1.0307 
  gm         0.       570.2361f  685.3921f  2.350e-19  5.509e-19    1.8537p
  gds        0.         8.1345f  782.3150u  487.9823f  487.9817f  782.3150u
  gmb        0.       229.2590f  581.9399f  9.674e-20  2.268e-19    1.5739p
  cdtot      3.6102f  501.1063a    6.8732f    4.2116f    5.9631f    4.8467f
  cgtot      2.7471f    2.8673f    4.8182f    2.8769f    2.8769f    4.8182f
  cstot    501.1061a  501.1061a    1.1362f  501.1061a  501.1061a    1.9950f
  cbtot      5.0363f    2.0730f    6.9007f    5.7934f    7.5450f    5.7330f
  cgs      485.2295a  484.8451a    1.6775f  309.2027a  309.2027a    2.0893f
  cgd      334.6526a  309.3903a    2.0893f  484.7309a  484.7309a    1.6775f



 subckt                                                                    
 element  0:m1102    0:m1103    0:m1104    0:m1105    0:m1106    0:m1107   
 model    0:cmosntt  0:cmosntt  0:cmosntt  0:cmosptt  0:cmosptt  0:cmosptt 
 region       Linear     Cutoff     Cutoff     Cutoff     Cutoff     Linear
  id       -27.0728p   24.5062f    0.        -3.3735f    0.       -26.3870p
  ibs        0.         0.         0.         0.         0.         0.     
  ibd        0.         0.         0.         0.         0.         0.     
  vgs        5.0000    69.2121n   -1.2439    -6.6711n    1.2492    -5.0000 
  vds      -34.6061n    1.2439     3.7561    -1.2492    -3.7508   -39.8136n
  vbs      -34.6061n    0.        -1.2439     0.         1.2492     0.     
  vth      699.7240m  684.1235m  896.2738m -849.7164m   -1.0743  -855.7622m
  vdsat      1.4215    42.2420m   47.5097m  -48.7786m  -53.0135m   -2.3271 
  vod        4.3003  -684.1234m   -2.1401   849.7164m    2.3234    -4.1442 
  beta     388.6356u  462.7920u  447.5141u  363.0430u  333.6194u  228.3604u
  gam eff    1.0307     1.0307     1.1430   536.7083m  525.9594m  536.7083m
  gm         1.8537p  570.2368f    0.        76.1495f    0.         3.3758p
  gds      782.3149u    8.1345f    0.         1.2451f    0.       662.7649u
  gmb        1.5739p  229.2593f    0.        30.8302f    0.         2.0108p
  cdtot      1.1362f    3.6102f    6.9489f    7.1345f    6.5971f   12.1019f
  cgtot      4.8182f    2.8673f    2.7471f    6.1535f    6.0166f   10.2469f
  cstot      1.9950f  501.1063a  501.1061a    1.5754f    1.5754f    3.0343f
  cbtot      2.0225f    5.1821f    8.3751f    8.6660f    7.9884f   10.3136f
  cgs        2.0893f  309.3903a  334.6526a    1.4826f    1.4877f    4.6535f
  cgd        1.6775f  484.8451a  485.2295a    1.5640f    1.5622f    4.8198f



 subckt                                                                    
 element  0:m1108    0:m1109    0:m1110    0:m1111    0:m1112    0:m1113   
 model    0:cmosptt  0:cmosptt  0:cmosptt  0:cmosptt  0:cmosptt  0:cmosptt 
 region       Linear     Cutoff     Linear     Cutoff     Linear     Cutoff
  id       -26.3870p  5.306e-21  5.887e-19  -10.0468f   -5.0100p  -10.0468f
  ibs        0.         0.         0.         0.         0.         0.     
  ibd        0.         0.         0.         0.         0.         0.     
  vgs       -5.0000    72.9561n   -5.0000   -79.6272n   -5.0000   888.1953p
  vds      -39.8136n   79.6272n  888.1784a   -5.0000    -7.5593n   -5.0000 
  vbs       39.8136n   79.6272n  888.1784a    0.         0.         7.5593n
  vth     -855.7622m -855.7622m -855.7622m -831.5629m -855.7622m -831.5629m
  vdsat     -2.3271   -48.7798m   -2.3271   -48.7748m   -2.3271   -48.7748m
  vod       -4.1442   855.7622m   -4.1442   831.5628m   -4.1442   831.5629m
  beta     228.3604u  362.3202u  228.3604u  365.2332u  228.3604u  365.2332u
  gam eff  536.7083m  536.7083m  536.7083m  536.7083m  536.7083m  536.7083m
  gm         3.3758p  1.198e-19  7.531e-20  226.7840f  640.9531f  226.7836f
  gds      662.7649u   66.6371f  662.7649u    2.4318f  662.7649u    2.4318f
  gmb        2.0108p  4.916e-20  4.486e-20   90.4979f  381.7785f   90.4978f
  cdtot     16.6326f    9.4012f    3.0343f    6.5971f   12.1019f    7.2230f
  cgtot     10.2469f    6.1666f   10.2469f    6.1152f   10.2469f    6.1152f
  cstot      3.0343f    1.5754f    4.2762f    1.5754f    3.0343f    1.5754f
  cbtot     14.8443f   10.9438f    2.4879f    8.0963f   10.3136f    8.7222f
  cgs        4.6535f    1.5639f    4.8198f    1.4765f    4.6535f    1.4765f
  cgd        4.8198f    1.4847f    4.6535f    1.5641f    4.8198f    1.5641f



 subckt                                                                    
 element  0:m1114    0:m1115    0:m1116    0:m1117    0:m1118    0:m1119   
 model    0:cmosptt  0:cmosptt  0:cmosptt  0:cmosptt  0:cmosptt  0:cmosptt 
 region       Cutoff     Cutoff     Linear     Linear     Linear     Linear
  id        11.0811p    7.8514f  -56.3417p  -56.3417p   -4.4214p    4.4214p
  ibs        0.         0.         0.         0.         0.         0.     
  ibd        0.         0.         0.         0.         0.         0.     
  vgs      -46.8405n    4.0183    -5.0000    -5.0000    -5.0000    -5.0000 
  vds      981.6865m    4.0183   -85.0101n  -85.0101n   -6.6711n    6.6711n
  vbs        5.0000     4.0183     0.        85.0101n    0.         6.6711n
  vth       -1.3981  -836.3141m -855.7622m -855.7622m -855.7622m -855.7622m
  vdsat    -57.0009m  -48.7758m   -2.3271    -2.3271    -2.3271    -2.3271 
  vod        1.3981     4.8546    -4.1442    -4.1442    -4.1442    -4.1442 
  beta     294.7058u  364.6571u  228.3604u  228.3604u  228.3604u  228.3604u
  gam eff  510.5314m  536.7083m  536.7083m  536.7083m  536.7083m  536.7083m
  gm       295.9043p  177.2277f    7.2080p    7.2080p  565.6431f  565.6431f
  gds        5.3458p    2.0505f  662.7649u  662.7649u  662.7649u  662.7649u
  gmb       26.9079p   71.0085f    4.2934p    4.2934p  336.9207f  336.9207f
  cdtot      5.6158f    1.5754f   12.1019f   20.9574f   16.6326f    3.0343f
  cgtot      4.4077f    6.1250f   10.2469f   10.2469f   10.2469f   10.2469f
  cstot      1.5754f    1.5754f    3.0343f    3.0343f    3.0343f    4.2762f
  cbtot      5.3260f    3.0829f   10.3136f   19.1691f   14.8443f    2.4879f
  cgs        1.5692f    1.5641f    4.6535f    4.6535f    4.6535f    4.8198f
  cgd        1.5529f    1.4781f    4.8198f    4.8198f    4.8198f    4.6535f



 subckt                                                                    
 element  0:m1120    0:m1121    0:m1122    0:m1123    0:m1124    0:m1125   
 model    0:cmosntt  0:cmosntt  0:cmosptt  0:cmosntt  0:cmosptt  0:cmosptt 
 region       Cutoff     Cutoff     Linear     Cutoff     Linear     Cutoff
  id       371.0568f  1.046e-28  -10.0818p   81.7995f  -42.5856p   -1.0919f
  ibs        0.         0.         0.         0.         0.         0.     
  ibd        0.         0.         0.         0.         0.         0.     
  vgs        0.        -1.1572    -5.0000     0.        -5.0000   296.0101n
  vds        1.1572     3.8428   -15.2117n    5.0000  -141.2016n   -1.2497 
  vbs        0.        -1.1572     0.         0.       170.0202n  311.2218n
  vth      602.6323m  792.3957m -855.7622m  637.0145m -869.6181m -863.5697m
  vdsat     43.6805m   48.1266m   -2.3271    42.2390m   -2.3190   -48.4484m
  vod     -602.6323m   -1.9496    -4.1442  -637.0145m   -4.1304   863.5700m
  beta       1.0209m    1.0021m  228.3604u  463.8595u  105.1257u  161.8156u
  gam eff    1.0081     1.1016   536.7083m    1.0307   533.5245m  533.5245m
  gm         8.6326p  2.680e-27    1.2898p    1.9032p    5.6482p   24.6468f
  gds      125.1505f    0.       662.7649u   34.5733f  301.5942u  402.5714a
  gmb        3.2954p  5.689e-28  768.2592f  745.0808f    3.4707p   10.1318f
  cdtot      6.8342f    6.7565f   15.1224f    3.7250f   20.2655f    4.8063f
  cgtot      5.5650f    5.3280f   10.2469f    2.8395f    4.8584f    3.0392f
  cstot      1.1011f    1.1011f    3.0343f  501.1066a    1.3553f  705.3938a
  cbtot      9.5565f    9.1899f   13.3341f    5.2684f   19.7267f    5.7728f
  cgs      674.9384a  726.1975a    4.6535f  309.8869a    2.0939f  667.0585a
  cgd        1.0666f    1.0674f    4.8198f  485.1763a    2.1580f  700.2157a



 subckt                                                                    
 element  0:m1126    0:m1127    0:m1128    0:m1129    0:m1130    0:m1131   
 model    0:cmosntt  0:cmosntt  0:cmosntt  0:cmosntt  0:cmosptt  0:cmosptt 
 region       Cutoff     Cutoff     Linear     Cutoff     Cutoff     Cutoff
  id      -3.719e-27    0.        20.0850p   81.7989f    0.         3.2490f
  ibs        0.         0.         0.         0.         0.         0.     
  ibd        0.         0.         0.         0.         0.         0.     
  vgs      154.8085n   -5.0000     5.0000  -224.1791n -198.5052n    5.0000 
  vds     -141.2016n   -1.2497    25.6739n    5.0000    25.6739n    5.0000 
  vbs       -5.0000    -5.0000  -198.5052n -224.1791n    5.0000     5.0000 
  vth        1.2260     1.1470   699.7241m  637.0145m   -1.5195  -845.4189m
  vdsat     53.2905m   51.8670m    1.4215    42.2390m  -57.5248m  -48.4447m
  vod       -1.2260    -6.1470     4.3003  -637.0148m    1.5195     5.8454 
  beta     420.4343u  427.6427u  388.6356u  463.8595u  124.2790u  162.7861u
  gam eff    1.3503     1.2919     1.0307     1.0307   497.8250m  533.5245m
  gm       9.999e-26    0.         1.3752p    1.9032p    0.        73.3389f
  gds      2.634e-20    0.       782.3149u   34.5731f  1.260e-23  786.1072a
  gmb      4.311e-27    0.         1.1677p  745.0751f    0.        29.7235f
  cdtot     10.5006f    3.8857f    7.4570f  501.1061a    3.8130f  705.3938a
  cgtot      2.0581f    2.6179f    4.8182f    2.8395f    2.2439f    3.0214f
  cstot    501.1061a  501.1061a    1.1362f  501.1066a  705.3938a  705.3938a
  cbtot     11.1238f    5.1478f    7.4846f    2.0445f    3.9514f    1.6569f
  cgs      492.7331a  484.9893a    1.6775f  309.8869a  702.3300a  700.2936a
  cgd      441.1271a  369.7286a    2.0893f  485.1763a  697.8518a  664.2219a



 subckt                                                                    
 element  0:m1132    0:m1133    0:m1134    0:m1135    0:m1136    0:m1137   
 model    0:cmosptt  0:cmosptt  0:cmosptt  0:cmosntt  0:cmosntt  0:cmosntt 
 region       Cutoff     Cutoff     Linear     Cutoff     Linear     Linear
[...]
   65.25000n    0.         5.0000     0.         0.      
   65.30000n    0.         5.0000     0.         0.      
   65.35000n    0.         5.0000     0.         0.      
   65.40000n    0.         5.0000     0.         0.      
   65.45000n    0.         5.0000     0.         0.      
   65.50000n    0.         5.0000     0.         0.      
   65.55000n    0.         5.0000     0.         0.      
   65.60000n    0.         5.0000     0.         0.      
   65.65000n    0.         5.0000     0.         0.      
   65.70000n    0.         5.0000     0.         0.      
   65.75000n    0.         5.0000     0.         0.      
   65.80000n    0.         5.0000     0.         0.      
   65.85000n    0.         5.0000     0.         0.      
   65.90000n    0.         5.0000     0.         0.      
   65.95000n    0.         5.0000     0.         0.      
   66.00000n    0.         5.0000     0.         0.      
   66.05000n    0.         5.0000     0.         0.      
   66.10000n    0.         5.0000     0.         0.      
   66.15000n    0.         5.0000     0.         0.      
   66.20000n    0.         5.0000     0.         0.      
   66.25000n    0.         5.0000     0.         0.      
   66.30000n    0.         5.0000     0.         0.      
   66.35000n    0.         5.0000     0.         0.      
   66.40000n    0.         5.0000     0.         0.      
   66.45000n    0.         5.0000     0.         0.      
   66.50000n    0.         5.0000     0.         0.      
   66.55000n    0.         5.0000     0.         0.      
   66.60000n    0.         5.0000     0.         0.      
   66.65000n    0.         5.0000     0.         0.      
   66.70000n    0.         5.0000     0.         0.      
   66.75000n    0.         5.0000     0.         0.      
   66.80000n    0.         5.0000     0.         0.      
   66.85000n    0.         5.0000     0.         0.      
   66.90000n    0.         5.0000     0.         0.      
   66.95000n    0.         5.0000     0.         0.      
   67.00000n    0.         5.0000     0.         0.      
   67.05000n    0.         5.0000     0.         0.      
   67.10000n    0.         5.0000     0.         0.      
   67.15000n    0.         5.0000     0.         0.      
   67.20000n    0.         5.0000     0.         0.      
   67.25000n    0.         5.0000     0.         0.      
   67.30000n    0.         5.0000     0.         0.      
   67.35000n    0.         5.0000     0.         0.      
   67.40000n    0.         5.0000     0.         0.      
   67.45000n    0.         5.0000     0.         0.      
   67.50000n    0.         5.0000     0.         0.      
   67.55000n    0.         5.0000     0.         0.      
   67.60000n    0.         5.0000     0.         0.      
   67.65000n    0.         5.0000     0.         0.      
   67.70000n    0.         5.0000     0.         0.      
   67.75000n    0.         5.0000     0.         0.      
   67.80000n    0.         5.0000     0.         0.      
   67.85000n    0.         5.0000     0.         0.      
   67.90000n    0.         5.0000     0.         0.      
   67.95000n    0.         5.0000     0.         0.      
   68.00000n    0.         5.0000     0.         0.      
   68.05000n    0.         5.0000     0.         0.      
   68.10000n    0.         5.0000     0.         0.      
   68.15000n    0.         5.0000     0.         0.      
   68.20000n    0.         5.0000     0.         0.      
   68.25000n    0.         5.0000     0.         0.      
   68.30000n    0.         5.0000     0.         0.      
   68.35000n    0.         5.0000     0.         0.      
   68.40000n    0.         5.0000     0.         0.      
   68.45000n    0.         5.0000     0.         0.      
   68.50000n    0.         5.0000     0.         0.      
   68.55000n    0.         5.0000     0.         0.      
   68.60000n    0.         5.0000     0.         0.      
   68.65000n    0.         5.0000     0.         0.      
   68.70000n    0.         5.0000     0.         0.      
   68.75000n    0.         5.0000     0.         0.      
   68.80000n    0.         5.0000     0.         0.      
   68.85000n    0.         5.0000     0.         0.      
   68.90000n    0.         5.0000     0.         0.      
   68.95000n    0.         5.0000     0.         0.      
   69.00000n    0.         5.0000     0.         0.      
   69.05000n    0.         5.0000     0.         0.      
   69.10000n    0.         5.0000     0.         0.      
   69.15000n    0.         5.0000     0.         0.      
   69.20000n    0.         5.0000     0.         0.      
   69.25000n    0.         5.0000     0.         0.      
   69.30000n    0.         5.0000     0.         0.      
   69.35000n    0.         5.0000     0.         0.      
   69.40000n    0.         5.0000     0.         0.      
   69.45000n    0.         5.0000     0.         0.      
   69.50000n    0.         5.0000     0.         0.      
   69.55000n    0.         5.0000     0.         0.      
   69.60000n    0.         5.0000     0.         0.      
   69.65000n    0.         5.0000     0.         0.      
   69.70000n    0.         5.0000     0.         0.      
   69.75000n    0.         5.0000     0.         0.      
   69.80000n    0.         5.0000     0.         0.      
   69.85000n    0.         5.0000     0.         0.      
   69.90000n    0.         5.0000     0.         0.      
   69.95000n    0.         5.0000     0.         0.      
   70.00000n  661.7445f    5.0000     0.         0.      
   70.05000n    1.2500     3.7500     0.         0.      
   70.10000n    2.5000     2.5000     0.         0.      
   70.15000n    3.7500     1.2500     0.         0.      
   70.20000n    5.0000   617.2840f    0.         0.      
   70.25000n    5.0000     0.         0.         0.      
   70.30000n    5.0000     0.         0.         0.      
   70.35000n    5.0000     0.         0.         0.      
   70.40000n    5.0000     0.         0.         0.      
   70.45000n    5.0000     0.         0.         0.      
   70.50000n    5.0000     0.         0.         0.      
   70.55000n    5.0000     0.         0.         0.      
   70.60000n    5.0000     0.         0.         0.      
   70.65000n    5.0000     0.         0.         0.      
   70.70000n    5.0000     0.         0.         0.      
   70.75000n    5.0000     0.         0.         0.      
   70.80000n    5.0000     0.         0.         0.      
   70.85000n    5.0000     0.         0.         0.      
   70.90000n    5.0000     0.         0.         0.      
   70.95000n    5.0000     0.         0.         0.      
   71.00000n    5.0000     0.         0.         0.      
   71.05000n    5.0000     0.         0.         0.      
   71.10000n    5.0000     0.         0.         0.      
   71.15000n    5.0000     0.         0.         0.      
   71.20000n    5.0000     0.         0.         0.      
   71.25000n    5.0000     0.         0.         0.      
   71.30000n    5.0000     0.         0.         0.      
   71.35000n    5.0000     0.         0.         0.      
   71.40000n    5.0000     0.         0.         0.      
   71.45000n    5.0000     0.         0.         0.      
   71.50000n    5.0000     0.         0.         0.      
   71.55000n    5.0000     0.         0.         0.      
   71.60000n    5.0000     0.         0.         0.      
   71.65000n    5.0000     0.         0.         0.      
   71.70000n    5.0000     0.         0.         0.      
   71.75000n    5.0000     0.         0.         0.      
   71.80000n    5.0000     0.         0.         0.      
   71.85000n    5.0000     0.         0.         0.      
   71.90000n    5.0000     0.         0.         0.      
   71.95000n    5.0000     0.         0.         0.      
   72.00000n    5.0000     0.         0.         0.      
   72.05000n    5.0000     0.         0.         0.      
   72.10000n    5.0000     0.         0.         0.      
   72.15000n    5.0000     0.         0.         0.      
   72.20000n    5.0000     0.         0.         0.      
   72.25000n    5.0000     0.         0.         0.      
   72.30000n    5.0000     0.         0.         0.      
   72.35000n    5.0000     0.         0.         0.      
   72.40000n    5.0000     0.         0.         0.      
   72.45000n    5.0000     0.         0.         0.      
   72.50000n    5.0000     0.         0.         0.      
   72.55000n    5.0000     0.         0.         0.      
   72.60000n    5.0000     0.         0.         0.      
   72.65000n    5.0000     0.         0.         0.      
   72.70000n    5.0000     0.         0.         0.      
   72.75000n    5.0000     0.         0.         0.      
   72.80000n    5.0000     0.         0.         0.      
   72.85000n    5.0000     0.         0.         0.      
   72.90000n    5.0000     0.         0.         0.      
   72.95000n    5.0000     0.         0.         0.      
   73.00000n    5.0000     0.         0.         0.      
   73.05000n    5.0000     0.         0.         0.      
   73.10000n    5.0000     0.         0.         0.      
   73.15000n    5.0000     0.         0.         0.      
   73.20000n    5.0000     0.         0.         0.      
   73.25000n    5.0000     0.         0.         0.      
   73.30000n    5.0000     0.         0.         0.      
   73.35000n    5.0000     0.         0.         0.      
   73.40000n    5.0000     0.         0.         0.      
   73.45000n    5.0000     0.         0.         0.      
   73.50000n    5.0000     0.         0.         0.      
   73.55000n    5.0000     0.         0.         0.      
   73.60000n    5.0000     0.         0.         0.      
   73.65000n    5.0000     0.         0.         0.      
   73.70000n    5.0000     0.         0.         0.      
   73.75000n    5.0000     0.         0.         0.      
   73.80000n    5.0000     0.         0.         0.      
   73.85000n    5.0000     0.         0.         0.      
   73.90000n    5.0000     0.         0.         0.      
   73.95000n    5.0000     0.         0.         0.      
   74.00000n    5.0000     0.         0.         0.      
   74.05000n    5.0000     0.         0.         0.      
   74.10000n    5.0000     0.         0.         0.      
   74.15000n    5.0000     0.         0.         0.      
   74.20000n    5.0000     0.         0.         0.      
   74.25000n    5.0000     0.         0.         0.      
   74.30000n    5.0000     0.         0.         0.      
   74.35000n    5.0000     0.         0.         0.      
   74.40000n    5.0000     0.         0.         0.      
   74.45000n    5.0000     0.         0.         0.      
   74.50000n    5.0000     0.         0.         0.      
   74.55000n    5.0000     0.         0.         0.      
   74.60000n    5.0000     0.         0.         0.      
   74.65000n    5.0000     0.         0.         0.      
   74.70000n    5.0000     0.         0.         0.      
   74.75000n    5.0000     0.         0.         0.      
   74.80000n    5.0000     0.         0.         0.      
   74.85000n    5.0000     0.         0.         0.      
   74.90000n    5.0000     0.         0.         0.      
   74.95000n    5.0000     0.         0.         0.      
   75.00000n    5.0000     0.         0.         0.      
   75.05000n    3.7500     0.         0.         0.      
   75.10000n    2.5000     0.         0.         0.      
   75.15000n    1.2500     0.         0.         0.      
   75.20000n  617.2840f    0.         0.         0.      
   75.25000n    0.         0.         0.         0.      
   75.30000n    0.         0.         0.         0.      
   75.35000n    0.         0.         0.         0.      
   75.40000n    0.         0.         0.         0.      
   75.45000n    0.         0.         0.         0.      
   75.50000n    0.         0.         0.         0.      
   75.55000n    0.         0.         0.         0.      
   75.60000n    0.         0.         0.         0.      
   75.65000n    0.         0.         0.         0.      
   75.70000n    0.         0.         0.         0.      
   75.75000n    0.         0.         0.         0.      
   75.80000n    0.         0.         0.         0.      
   75.85000n    0.         0.         0.         0.      
   75.90000n    0.         0.         0.         0.      
   75.95000n    0.         0.         0.         0.      
   76.00000n    0.         0.         0.         0.      
   76.05000n    0.         0.         0.         0.      
   76.10000n    0.         0.         0.         0.      
   76.15000n    0.         0.         0.         0.      
   76.20000n    0.         0.         0.         0.      
   76.25000n    0.         0.         0.         0.      
   76.30000n    0.         0.         0.         0.      
   76.35000n    0.         0.         0.         0.      
   76.40000n    0.         0.         0.         0.      
   76.45000n    0.         0.         0.         0.      
   76.50000n    0.         0.         0.         0.      
   76.55000n    0.         0.         0.         0.      
   76.60000n    0.         0.         0.         0.      
   76.65000n    0.         0.         0.         0.      
   76.70000n    0.         0.         0.         0.      
   76.75000n    0.         0.         0.         0.      
   76.80000n    0.         0.         0.         0.      
   76.85000n    0.         0.         0.         0.      
   76.90000n    0.         0.         0.         0.      
   76.95000n    0.         0.         0.         0.      
   77.00000n    0.         0.         0.         0.      
   77.05000n    0.         0.         0.         0.      
   77.10000n    0.         0.         0.         0.      
   77.15000n    0.         0.         0.         0.      
   77.20000n    0.         0.         0.         0.      
   77.25000n    0.         0.         0.         0.      
   77.30000n    0.         0.         0.         0.      
   77.35000n    0.         0.         0.         0.      
   77.40000n    0.         0.         0.         0.      
   77.45000n    0.         0.         0.         0.      
   77.50000n    0.         0.         0.         0.      
   77.55000n    0.         0.         0.         0.      
   77.60000n    0.         0.         0.         0.      
   77.65000n    0.         0.         0.         0.      
   77.70000n    0.         0.         0.         0.      
   77.75000n    0.         0.         0.         0.      
   77.80000n    0.         0.         0.         0.      
   77.85000n    0.         0.         0.         0.      
   77.90000n    0.         0.         0.         0.      
   77.95000n    0.         0.         0.         0.      
   78.00000n    0.         0.         0.         0.      
   78.05000n    0.         0.         0.         0.      
   78.10000n    0.         0.         0.         0.      
   78.15000n    0.         0.         0.         0.      
   78.20000n    0.         0.         0.         0.      
   78.25000n    0.         0.         0.         0.      
   78.30000n    0.         0.         0.         0.      
   78.35000n    0.         0.         0.         0.      
   78.40000n    0.         0.         0.         0.      
   78.45000n    0.         0.         0.         0.      
   78.50000n    0.         0.         0.         0.      
   78.55000n    0.         0.         0.         0.      
   78.60000n    0.         0.         0.         0.      
   78.65000n    0.         0.         0.         0.      
   78.70000n    0.         0.         0.         0.      
   78.75000n    0.         0.         0.         0.      
   78.80000n    0.         0.         0.         0.      
   78.85000n    0.         0.         0.         0.      
   78.90000n    0.         0.         0.         0.      
   78.95000n    0.         0.         0.         0.      
   79.00000n    0.         0.         0.         0.      
   79.05000n    0.         0.         0.         0.      
   79.10000n    0.         0.         0.         0.      
   79.15000n    0.         0.         0.         0.      
   79.20000n    0.         0.         0.         0.      
   79.25000n    0.         0.         0.         0.      
   79.30000n    0.         0.         0.         0.      
   79.35000n    0.         0.         0.         0.      
   79.40000n    0.         0.         0.         0.      
   79.45000n    0.         0.         0.         0.      
   79.50000n    0.         0.         0.         0.      
   79.55000n    0.         0.         0.         0.      
   79.60000n    0.         0.         0.         0.      
   79.65000n    0.         0.         0.         0.      
   79.70000n    0.         0.         0.         0.      
   79.75000n    0.         0.         0.         0.      
   79.80000n    0.         0.         0.         0.      
   79.85000n    0.         0.         0.         0.      
   79.90000n    0.         0.         0.         0.      
   79.95000n    0.         0.         0.         0.      
   80.00000n    0.         0.         0.         0.      
y
 vmax=   failed  from=   failed     to=   failed
 vmin=   failed  from=   failed     to=   failed
   trise= failed                         measure parameter failed
   tfall= failed                         measure parameter failed
  **warning** (bpm_custom.sp:2610) Target event is undefined. Please specify a valid event. Measure failed.
   tplh= failed                          trig= not found
   tphl= failed                          trig= not found
 avgpower=   9.5101m  from=   0.             to=  80.0000n
 peakpwr=   9.5604m    at= 417.6978p
             from=   0.            to=  80.0000n

          ***** job concluded
1****** HSPICE -- K-2015.06 linux64 (May 25 2015) ******                        
 ******  
 *********************************************************

 ****** job statistics summary tnom=  25.000 temp=  70.000 ******
  
  
 ******  Machine Information  ******
 CPU:
 model name	: Intel(R) Xeon(R) CPU E5-4617 0 @ 2.90GHz
 cpu MHz	: 1200.000
  
 OS:
 Linux version 2.6.32-696.30.1.el6.x86_64 (mockbuild@x86-033.build.eng.bos.redhat.com) (gcc version 4.4.7 20120313 (Red Hat 4.4.7-18) (GCC) ) #1 SMP Fri May 18 11:50:44 EDT 2018


  ******  HSPICE Threads Information  ******

  Command Line Threads Count :     1
  Available CPU Count        :    12
  Actual Threads Count       :     1


  ****** Statistics of Ignored Elements ******
  Capacitors      :       1

  ******  Circuit Statistics  ******
  # nodes       =     505 # elements   =    1250
  # resistors   =       4 # capacitors =     329 # inductors   =       0
  # mutual_inds =       0 # vccs       =       0 # vcvs        =       0
  # cccs        =       0 # ccvs       =       0 # volt_srcs   =       5
  # curr_srcs   =       0 # diodes     =       0 # bjts        =       0
  # jfets       =       0 # mosfets    =     912 # U elements  =       0
  # T elements  =       0 # W elements =       0 # B elements  =       0
  # S elements  =       0 # P elements =       0 # va device   =       0
  # vector_srcs =       0 # N elements =       0


  ******  Runtime Statistics (seconds)  ******

  analysis           time    # points   tot. iter  conv.iter
  op point           0.27           1         102
  dc sweep           0.58          51         202
  transient          0.20        1601         384         192 rev=        31
  readin             0.10
  errchk             0.03
  setup              0.01
  output             0.00


           peak memory used        209.31 megabytes
           total cpu time            1.19 seconds
           total elapsed time        1.08 seconds
           job started at     08:04:19 12/07/2018
           job ended   at     08:04:20 12/07/2018


 lic: Release hspice token(s) 
 lic: total license checkout elapse time:        0.27(s)
