Using: /programs/synopsys/hspice_vK-2015.06/hspice/linux64/hspice bpm_custom.sp
 ****** HSPICE -- K-2015.06 linux64 (May 25 2015) ******                        
  Copyright (c) 1986 - 2018 by Synopsys, Inc. All Rights Reserved.              
  This software and the associated documentation are proprietary
  to Synopsys, Inc. This software may only be used in accordance
  with the terms and conditions of a written license agreement with
  Synopsys, Inc. All other use, reproduction, or distribution of
  this software is strictly prohibited.
  Input File: bpm_custom.sp                                                     
  Command line options: /programs/synopsys/hspice_vK-2015.06/hspice/linux64/hspice bpm_custom.sp
 lic:  
 lic: FLEXlm: v11.2.1 
 lic: USER:   dshadoa              HOSTNAME: shire.ecen.okstate.edu 
 lic: HOSTID: "2c44fd80a220"       PID:      37127 
 lic: Using FLEXlm license file: 
 lic: 27020@avatar.ecen.okstate.edu 
 lic: Checkout 1 hspice 
 lic: License/Maintenance for hspice will expire on 27-jan-2019/2017.12 
 lic: 1(in_use)/50(total) FLOATING license(s) on SERVER 27020@avatar.ecen.okstate.edu 
 lic:   
 Init: read install configuration file: /programs/synopsys/hspice_vK-2015.06/hspice/meta.cfg
1****** HSPICE -- K-2015.06 linux64 (May 25 2015) ******                        
 ******  
 *********************************************************

 ****** mos   model parameters tnom=  25.000 temp=  25.000 ******
 ***************************************************************************
 ***        model parameters  model name:   0:cmosntt  model type:nmos   ***
 ***************************************************************************

   *** general parameters ***
    deriv=   0.           

   ***  level 49  model parameters  ***

      hspver=    2006.03               level=         49         
     version=        3.1            paramchk=          0         
      apwarn=          1                lite=          0         
      vgslim=          0             binUnit=          1         
      capMod=          2               xpart=        0.5         
      mobMod=          1              nqsMod=          0         
      stiMod=          0                 elm=          5         
    sfvtflag=          0                 tox=   1.39e-08 meter   
          xj=    1.5e-07 meter       binflag=          0         
        lmin=          0 meter          lmax=          0 meter   
        wmin=          0 meter          wmax=          0 meter   
        lref=          0 meter          wref=          0 meter   
        lint=3.59761e-08 meter          wint=2.47235e-07 meter   
       lmult=          1               wmult=          1         
          ll=          0                 lln=          1         
          lw=          0                 lwn=          1         
         lwl=          0                  wl=          0         
         wln=          1                  ww=          0         
         wwn=          1                 wwl=          0         
         dwg=-1.28716e-08 m/V             dwb=5.30659e-08 m/V^1/2 
          xl=          0                  xw=          0         
          a0=   0.610354                 ags=   0.119461 V^-1    
          b0=2.67476e-06 meter            b1=      5e-06 meter   
        keta=-0.00264068 V^-1           voff=          0 V       
       ngate=          0 cm^-3           vbx=          0 V       
         vbm=         -3 V                xt=   1.55e-07 meter   
        vth0=   0.669606 V               nch=    1.7e+17 cm^-3   
        nsub=      6e+16 cm^-3           nlx=      1e-09 meter   
      gamma1=          0 V^-1/2       gamma2=          0 V^-1/2  
          k1=   0.835161 V^1/2            k2= -0.0839158         
          k3=    23.1024                 k3b=   -7.68411 V^-1    
          w0=      1e-08 meter          dvt0=    2.90472         
        dvt1=   0.430269                dvt2=  -0.134857 V^-1    
       dvt0w=          0 meter^-1      dvt1w=          0 meter^-1
       dvt2w=          0 V^-1           dsub=   0.254346         
        eta0=  0.0246738                etab=-0.00140612 V^-1    
          u0=     458.44 cm^2/V/sec         ua=      1e-13 m/V     
          ub= 1.4855e-18 (m/V)^2          uc=1.62994e-11 V^-1    
        vsat=     164399 m/sec            a1=8.21959e-05 v^-1    
          a2=   0.356479               delta=       0.01 V       
        rdsw=    1387.11 ohm-um         prwg=  0.0299916 V^-1    
        prwb=  0.0363981 V^-1/2           wr=          1         
        pclm=    2.59452             pdiblc1=  -0.428234         
     pdiblc2= 0.00231174             pdiblcb= -0.0272914 V^-1    
      pscbe1=5.59862e+08 V/m          pscbe2=5.46165e-05 V/m     
       drout=   0.728357                pvag=          0         
     nfactor=   0.836558                cdsc=    0.00024 f/m^2   
       cdscb=          0 f/V/m^2       cdscd=          0 f/V/m^2 
         cit=          0 f/m^2        alpha0=          0 m/V     
       beta0=         30 V               dlc=3.59761e-08 meter   
         dwc=2.47235e-07 meter           clc=      1e-07 meter   
         cle=        0.6                cgso=      2e-10 f/m     
        cgdo=      2e-10 f/m            cgbo=      1e-09 f/m     
        cgsl=          0 f/m            cgdl=          0 f/m     
      ckappa=        0.6                  cf=          0 f/m     
        tnom=     300.15 K               kt1=    -0.2501 V       
        kt1l=  -2.58e-09                 kt2=          0         
         ute=         -1                 ua1=    5.4e-10 m/V     
         ub1=   -4.8e-19 (m/V)^2         uc1=   -7.5e-11 m/V^2   
          at=     100000 m/s             prt=      8.621         
         using Berkeley noise model       noiMod=          1         
        noia=      1e+20                noib=      50000         
        noic=   -1.4e-12                  em=    4.1e+07         
          ef=          1                  af=          1         
          kf=          0              gdsnoi=-1.23457e-29         
         using Hspice diodes            using ACM 
         acm=         0                 hdif=         0 meter    
        ldif=         0 meter             js=         0 amp/m^2  
         jsw=         0 amp/m            xti=         0          
           n=         1                   cj=0.000419777 f/m^2    
          mj=  0.451504                   pb=      0.99 V        
        cjsw=3.24272e-10 f/m             mjsw=  0.115399          
         php=      0.99 V               pbsw (not used)           
      cjgate=3.24272e-10 f/m            cjswg (not used)           
       mjswg (not used)                 pbswg (not used)           
       lketa= 0.00117319               wketa= -0.0248758         
       pvth0=  0.0585501                 pk2= -0.0299638         
       prdsw=    133.286         
 ***************************************************************************
 ***        model parameters  model name:   0:cmosptt  model type:pmos   ***
 ***************************************************************************

   *** general parameters ***
    deriv=   0.           

   ***  level 49  model parameters  ***

      hspver=    2006.03               level=         49         
     version=        3.1            paramchk=          0         
      apwarn=          1                lite=          0         
      vgslim=          0             binUnit=          1         
      capMod=          2               xpart=        0.5         
      mobMod=          1              nqsMod=          0         
      stiMod=          0                 elm=          5         
    sfvtflag=          0                 tox=   1.39e-08 meter   
          xj=    1.5e-07 meter       binflag=          0         
        lmin=          0 meter          lmax=          0 meter   
        wmin=          0 meter          wmax=          0 meter   
        lref=          0 meter          wref=          0 meter   
        lint=5.52881e-08 meter          wint=2.83804e-07 meter   
       lmult=          1               wmult=          1         
          ll=          0                 lln=          1         
          lw=          0                 lwn=          1         
         lwl=          0                  wl=          0         
         wln=          1                  ww=          0         
         wwn=          1                 wwl=          0         
         dwg=-1.60638e-08 m/V             dwb=2.26639e-08 m/V^1/2 
          xl=          0                  xw=          0         
          a0=   0.843002                 ags=   0.132861 V^-1    
          b0=7.11791e-07 meter            b1=      5e-06 meter   
        keta=-0.00367486 V^-1           voff= -0.0558512 V       
       ngate=          0 cm^-3           vbx=          0 V       
         vbm=         -3 V                xt=   1.55e-07 meter   
        vth0=  -0.921435 V               nch=    1.7e+17 cm^-3   
        nsub=      6e+16 cm^-3           nlx=  2.594e-08 meter   
      gamma1=          0 V^-1/2       gamma2=          0 V^-1/2  
          k1=   0.555372 V^1/2            k2= 0.00876333         
          k3=    6.30636                 k3b=  -0.648736 V^-1    
          w0= 1.2807e-08 meter          dvt0=    2.51312         
        dvt1=   0.548054                dvt2=  -0.118649 V^-1    
       dvt0w=          0 meter^-1      dvt1w=          0 meter^-1
       dvt2w=          0 V^-1           dsub=          1         
        eta0=   0.325188                etab= -0.0580325 V^-1    
          u0=    212.017 cm^2/V/sec         ua=2.80712e-09 m/V     
          ub=      1e-21 (m/V)^2          uc=-5.82128e-11 V^-1    
        vsat=     171360 m/sec            a1=4.77502e-05 v^-1    
          a2=        0.3               delta=       0.01 V       
        rdsw=    2837.21 ohm-um         prwg= -0.0363908 V^-1    
        prwb=-1.01672e-05 V^-1/2           wr=          1         
        pclm=    2.24096             pdiblc1=  0.0411445         
     pdiblc2= 0.00335557             pdiblcb= -0.0551797 V^-1    
      pscbe1=6.44809e+09 V/m          pscbe2=6.30085e-10 V/m     
       drout=    0.20369                pvag=          0         
     nfactor=   0.934249                cdsc=    0.00024 f/m^2   
       cdscb=          0 f/V/m^2       cdscd=          0 f/V/m^2 
         cit=          0 f/m^2        alpha0=          0 m/V     
       beta0=         30 V               dlc=5.52881e-08 meter   
         dwc=2.83804e-07 meter           clc=      1e-07 meter   
         cle=        0.6                cgso=    2.9e-10 f/m     
        cgdo=    2.9e-10 f/m            cgbo=      1e-09 f/m     
        cgsl=          0 f/m            cgdl=          0 f/m     
      ckappa=        0.6                  cf=          0 f/m     
        tnom=     300.15 K               kt1=    -0.2942 V       
        kt1l=   1.68e-09                 kt2=          0         
         ute=         -1                 ua1=    4.5e-09 m/V     
         ub1=   -6.3e-18 (m/V)^2         uc1=     -1e-10 m/V^2   
          at=       1000 m/s             prt=     59.494         
         using Berkeley noise model       noiMod=          1         
        noia=    9.9e+18                noib=       2400         
        noic=    1.4e-12                  em=    4.1e+07         
          ef=          1                  af=          1         
          kf=          0              gdsnoi=-1.23457e-29         
         using Hspice diodes            using ACM 
         acm=         0                 hdif=         0 meter    
        ldif=         0 meter             js=         0 amp/m^2  
         jsw=         0 amp/m            xti=         0          
           n=         1                   cj=0.000723553 f/m^2    
          mj=  0.495529                   pb=  0.952735 V        
        cjsw=2.69279e-10 f/m             mjsw=  0.295839          
         php=  0.952735 V               pbsw (not used)           
      cjgate=2.69279e-10 f/m            cjswg (not used)           
       mjswg (not used)                 pbswg (not used)           
       lketa= -0.0042059               wketa= 0.00529216         
       pvth0= 0.00598016                 pk2= 0.00373981         
       prdsw=    14.8598         
  **info** (bpm_custom.sp:39) DC voltage reset to initial transient source value              in source        0:vclk                new dc=  0.0000D+00
  **warning** (bpm_custom.sp:2117) Both nodes of element c239 are connected together; Line ignored.
 

 Warning: Ps = 0 is less than Weff = 2.50553e-06 in BSIM3 model    0:cmosntt element m1001 with W = 3e-06, L = 6e-07

  
      
 **info** set option symb=1 internally to help for convergence.
 *****************************************************************
 ******  option summary
 ******
 runlvl  = 3         bypass  = 2         
 **info** dc convergence successful at Newton-Raphson method 
1****** HSPICE -- K-2015.06 linux64 (May 25 2015) ******                        
 ******  
 *********************************************************

 ****** operating point information tnom=  25.000 temp=  70.000 ******
 ****** operating point status is all       simulation time is     0.     
    node    =voltage      node    =voltage      node    =voltage

 +0:bs2_0[1]= 981.6865m 0:bs2_0[1]=   5.0000  0:bs2_0[1]=   1.1572 
 +0:bs2_0[1]=   5.0000  0:bs2_0[1]=   5.0000  0:bs2_0[2]=  11.1858n
 +0:bs2_0[2]=   5.0000  0:bs2_0[2]=  22.3717n 0:bs2_0[2]=  32.9965n
 +0:bs2_0[2]=   5.0000  0:bs2_0[2]=  65.9929n 0:bs2_0[2]= 125.5202a
 +0:bs2_0[2]=   5.0000  0:bs2_0[2]=   6.4958n 0:bs2_0[2]=   5.0000 
 +0:bs2_0[2]=   4.1900  0:bs2_0[2]=  81.7074n 0:bs2_0[2]=   3.7508 
 +0:bs2_0[2]= 981.6865m 0:bs2_0[2]=   3.7508  0:bs2_0[2]=   5.0000 
 +0:bs2_0[2]=   5.0000  0:bs2_0[2]=   3.7508  0:bs2_0[2]=   1.1572 
 +0:bs2_0[2]=   5.0000  0:bs2_0[2]=   5.0000  0:bs2_0[3]=  11.1858n
 +0:bs2_0[3]=   5.0000  0:bs2_0[3]=  22.3717n 0:bs2_0[3]=   4.1900 
 +0:bs2_0[3]= 240.3277n 0:bs2_0[3]=   5.0000  0:bs2_0[3]=   1.2439 
 +0:bs2_0[3]=  12.7954n 0:bs2_0[3]=   1.2439  0:bs2_0[3]=   5.0000 
 +0:bs2_0[3]=   4.1900  0:bs2_0[3]=  81.7074n 0:bs2_0[3]=   3.7508 
 +0:bs2_0[3]=   5.0000  0:bs2_0[3]=   5.0000  0:bs2_0[3]=   5.0000 
 +0:bs2_0[3]=   5.0000  0:bs2_0[3]=   3.7508  0:bs2_0[3]=   1.1572 
 +0:bs2_0[3]=   5.0000  0:bs2_0[3]=   5.0000  0:bs2_0[4]=  11.1858n
 +0:bs2_0[4]=   5.0000  0:bs2_0[4]=  22.3717n 0:bs2_0[4]=   4.1900 
 +0:bs2_0[4]= 253.2190n 0:bs2_0[4]=   5.0000  0:bs2_0[4]=   1.2439 
 +0:bs2_0[4]=  12.7954n 0:bs2_0[4]=  20.6968n 0:bs2_0[4]=  69.2121n
 +0:bs2_0[4]=  34.6061n 0:bs2_0[4]=   1.2439  0:bs2_0[4]=   3.7508 
 +0:bs2_0[4]=   5.0000  0:bs2_0[4]=   5.0000  0:bs2_0[4]=   5.0000 
 +0:bs2_0[4]= 981.6865m 0:bs2_0[4]=   5.0000  0:bs2_0[4]=   1.1572 
 +0:bs2_0[4]=   5.0000  0:bs2_0[4]=   5.0000  0:bs2_0[5]=  11.1858n
 +0:bs2_0[5]=   5.0000  0:bs2_0[5]=  22.3717n 0:bs2_0[5]=  32.9965n
 +0:bs2_0[5]=   5.0000  0:bs2_0[5]=  65.9929n 0:bs2_0[5]= 125.5202a
 +0:bs2_0[5]=   5.0000  0:bs2_0[5]=   6.4958n 0:bs2_0[5]=   5.0000 
 +0:bs2_0[5]=   4.1900  0:bs2_0[5]=  94.5987n 0:bs2_0[5]=   3.7508 
 +0:bs2_0[5]= 981.6865m 0:bs2_0[5]=   3.7508  0:bs2_0[5]=   5.0000 
 +0:bs2_0[5]=   5.0000  0:bs2_0[0]=  11.1858n 0:bs2_0[5]=   3.7508 
 +0:bs2_0[5]=   1.1572  0:bs2_0[5]=   5.0000  0:bs2_0[5]=   5.0000 
 +0:bs2_0[6]=  11.1858n 0:bs2_0[6]=   5.0000  0:bs2_0[6]=  22.3717n
 +0:bs2_0[6]=   4.1900  0:bs2_0[6]= 291.8929n 0:bs2_0[6]=   5.0000 
 +0:bs2_0[0]=   5.0000  0:bs2_0[6]=   1.2439  0:bs2_0[6]=  12.7954n
 +0:bs2_0[6]=  20.6968n 0:bs2_0[6]=  69.2121n 0:bs2_0[6]=  34.6061n
 +0:bs2_0[6]=   1.2439  0:bs2_0[6]=   3.7508  0:bs2_0[6]=   5.0000 
 +0:bs2_0[6]=   5.0000  0:bs2_0[6]=   5.0000  0:bs2_0[0]=  22.3717n
 +0:bs2_0[6]= 981.6865m 0:bs2_0[6]=   5.0000  0:bs2_0[6]=   1.1572 
 +0:bs2_0[6]=   5.0000  0:bs2_0[6]=   5.0000  0:bs2_0[7]=  11.1858n
 +0:bs2_0[7]=   5.0000  0:bs2_0[7]=  22.3717n 0:bs2_0[7]=  32.9965n
 +0:bs2_0[7]=   5.0000  0:bs2_0[0]=   4.1900  0:bs2_0[7]=  65.9929n
 +0:bs2_0[7]= 125.5202a 0:bs2_0[7]=   5.0000  0:bs2_0[7]=   6.4958n
 +0:bs2_0[7]=   5.0000  0:bs2_0[7]=   4.1900  0:bs2_0[7]=  62.5336n
 +0:bs2_0[7]=   3.7508  0:bs2_0[7]= 981.6865m 0:bs2_0[7]=   3.7508 
 +0:bs2_0[0]=  57.2011n 0:bs2_0[7]=   5.0000  0:bs2_0[7]=   5.0000 
 +0:bs2_0[7]=   3.7508  0:bs2_0[7]=   1.1572  0:bs2_0[7]=   5.0000 
 +0:bs2_0[7]=   5.0000  0:bs1_0[0]=  11.1858n 0:bs1_0[0]=   5.0000 
 +0:bs1_0[0]=  22.3717n 0:bs1_0[0]=   4.1900  0:bs2_0[0]=   5.0000 
 +0:bs1_0[0]=  44.7519n 0:bs1_0[0]=   5.0000  0:bs1_0[0]=   1.2439 
 +0:bs1_0[0]=  12.7954n 0:bs1_0[0]=  20.6968n 0:bs1_0[0]=  69.2121n
 +0:bs1_0[0]=  34.6061n 0:bs1_0[0]=   1.2439  0:bs1_0[0]=   3.7508 
 +0:bs1_0[0]=   5.0000  0:bs2_0[0]=   1.2439  0:bs1_0[0]=   5.0000 
 +0:bs1_0[0]=   5.0000  0:bs1_0[0]= 981.6865m 0:bs1_0[0]=   5.0000 
 +0:bs1_0[0]=   1.1572  0:bs1_0[0]=   5.0000  0:bs1_0[0]=   5.0000 
 +0:bs1_0[0]=   5.0000  0:bs1_0[0]=   5.0000  0:bs1_0[0]=   5.0000 
 +0:bs2_0[0]=  12.7954n 0:bs1_0[0]=  51.1817n 0:bs1_0[0]=   5.0000 
 +0:bs1_0[0]=   5.0000  0:bs1_0[0]=   6.4958n 0:bs1_0[0]=   4.1900 
 +0:bs1_0[0]=  25.5908n 0:bs1_0[0]=  15.3051n 0:bs1_0[0]=  51.1817n
 +0:bs1_0[1]=  11.1858n 0:bs1_0[1]=   5.0000  0:bs2_0[0]= 584.1180m
 +0:bs1_0[1]=  22.3717n 0:bs1_0[1]=  32.9965n 0:bs1_0[1]=   5.0000 
 +0:bs1_0[1]=  65.9929n 0:bs1_0[1]= 125.5202a 0:bs1_0[1]=   5.0000 
 +0:bs1_0[1]=   6.4958n 0:bs1_0[1]=   5.0000  0:bs1_0[1]=   4.1900 
 +0:bs1_0[1]=  30.3597n 0:bs2_0[0]=   2.3557  0:bs1_0[1]=   3.7508 
 +0:bs1_0[1]= 981.6865m 0:bs1_0[1]=   3.7508  0:bs1_0[1]=   5.0000 
 +0:bs1_0[1]=   5.0000  0:bs1_0[1]=   3.7508  0:bs1_0[1]=   1.1572 
 +0:bs1_0[1]=   5.0000  0:bs1_0[1]=   5.0000  0:bs1_0[1]=   5.0000 
 +0:bs2_0[0]=   1.6637  0:bs1_0[1]=   5.0000  0:bs1_0[1]=   5.0000 
 +0:bs1_0[1]=   5.0000  0:bs1_0[1]=   5.0000  0:bs1_0[1]=   5.0000 
 +0:bs1_0[1]= 826.2692m 0:bs1_0[1]=   1.2439  0:bs1_0[1]=   4.1593 
 +0:bs1_0[1]= 328.8009m 0:bs1_0[1]=   1.3322  0:bs2_0[0]= 451.6702m
 +0:bs1_0[2]=  11.1858n 0:bs1_0[2]=   5.0000  0:bs1_0[2]=  22.3717n
 +0:bs1_0[2]=   4.1900  0:bs1_0[2]=  44.7519n 0:bs1_0[2]=   5.0000 
 +0:bs1_0[2]=   1.2439  0:bs1_0[2]=  12.7954n 0:bs1_0[2]=  20.6968n
 +0:bs1_0[2]=  69.2121n 0:bs2_0[0]=   3.7508  0:bs1_0[2]=  34.6061n
 +0:bs1_0[2]=   1.2439  0:bs1_0[2]=   3.7508  0:bs1_0[2]=   5.0000 
 +0:bs1_0[2]=   5.0000  0:bs1_0[2]=   5.0000  0:bs1_0[2]= 981.6865m
 +0:bs1_0[2]=   5.0000  0:bs1_0[2]=   1.1572  0:bs1_0[2]=   5.0000 
 +0:bs2_0[0]=   5.0000  0:bs1_0[2]=   5.0000  0:bs1_0[2]=   5.0000 
 +0:bs1_0[2]=   5.0000  0:bs1_0[2]=   5.0000  0:bs1_0[2]=  51.1817n
 +0:bs1_0[2]=   5.0000  0:bs1_0[2]=   5.0000  0:bs1_0[2]=   6.4958n
 +0:bs1_0[2]=   4.1900  0:bs1_0[2]=  25.5908n 0:bs2_0[0]=   5.0000 
 +0:bs1_0[2]=  15.3051n 0:bs1_0[2]=  51.1817n 0:bs1_0[3]=  11.1858n
 +0:bs1_0[3]=   5.0000  0:bs1_0[3]=  22.3717n 0:bs1_0[3]=  32.9965n
 +0:bs1_0[3]=   5.0000  0:bs1_0[3]=  65.9929n 0:bs1_0[3]= 125.5202a
 +0:bs1_0[3]=   5.0000  0:bs2_0[0]=   5.0000  0:bs1_0[3]=   6.4958n
 +0:bs1_0[3]=   5.0000  0:bs1_0[3]=   4.1900  0:bs1_0[3]=  30.3597n
 +0:bs1_0[3]=   3.7508  0:bs1_0[3]= 981.6865m 0:bs1_0[3]=   3.7508 
 +0:bs1_0[3]=   5.0000  0:bs1_0[3]=   5.0000  0:bs1_0[3]=   3.7508 
 +0:bs2_0[0]=   3.3385  0:bs1_0[3]=   1.1572  0:bs1_0[3]=   5.0000 
 +0:bs1_0[3]=   5.0000  0:bs1_0[3]=   5.0000  0:bs1_0[3]=   5.0000 
 +0:bs1_0[3]=   5.0000  0:bs1_0[3]=   5.0000  0:bs1_0[3]=   5.0000 
 +0:bs1_0[3]=   5.0000  0:bs1_0[3]= 826.2692m 0:bs2_0[0]=   4.4620 
 +0:bs1_0[3]=   1.2439  0:bs1_0[3]=   4.1593  0:bs1_0[3]= 328.8009m
 +0:bs1_0[3]=   1.3322  0:bs1_0[4]=  11.1858n 0:bs1_0[4]=   5.0000 
 +0:bs1_0[4]=  22.3717n 0:bs1_0[4]=   4.1900  0:bs1_0[4]=  44.7519n
 +0:bs1_0[4]=   5.0000  0:bs2_0[0]=   1.1572  0:bs1_0[4]=   1.2439 
 +0:bs1_0[4]=  12.7954n 0:bs1_0[4]=   1.2439  0:bs1_0[4]=   5.0000 
 +0:bs1_0[4]=   4.1900  0:bs1_0[4]=  30.3597n 0:bs1_0[4]=   3.7508 
 +0:bs1_0[4]=   5.0000  0:bs1_0[4]=   5.0000  0:bs1_0[4]=   5.0000 
 +0:bs2_0[0]=   5.0000  0:bs1_0[4]=   5.0000  0:bs1_0[4]=   3.7508 
 +0:bs1_0[4]=   1.1572  0:bs1_0[4]=   5.0000  0:bs1_0[4]=   5.0000 
 +0:bs1_0[4]=   5.0000  0:bs1_0[4]=   5.0000  0:bs1_0[4]=   5.0000 
 +0:bs1_0[4]=   5.0000  0:bs1_0[4]=   5.0000  0:bs2_0[0]=   5.0000 
 +0:bs1_0[4]=   5.0000  0:bs1_0[4]= 826.2692m 0:bs1_0[4]=   1.2439 
 +0:bs1_0[4]=   4.1593  0:bs1_0[4]= 328.8009m 0:bs1_0[4]=   1.3322 
 +0:bs1_0[5]=  11.1858n 0:bs1_0[5]=   5.0000  0:bs1_0[5]=  22.3717n
 +0:bs1_0[5]=   4.1900  0:bs2_0[1]=  11.1858n 0:bs1_0[5]=  44.7519n
 +0:bs1_0[5]=   5.0000  0:bs1_0[5]=   1.2439  0:bs1_0[5]=  12.7954n
 +0:bs1_0[5]=   1.2439  0:bs1_0[5]=   5.0000  0:bs1_0[5]=   4.1900 
 +0:bs1_0[5]=  30.3597n 0:bs1_0[5]=   3.7508  0:bs1_0[5]=   5.0000 
 +0:bs2_0[1]=   5.0000  0:bs1_0[5]=   5.0000  0:bs1_0[5]=   5.0000 
 +0:bs1_0[5]=   5.0000  0:bs1_0[5]=   3.7508  0:bs1_0[5]=   1.1572 
 +0:bs1_0[5]=   5.0000  0:bs1_0[5]=   5.0000  0:bs1_0[5]=   5.0000 
 +0:bs1_0[5]=   5.0000  0:bs1_0[5]=   5.0000  0:bs2_0[1]=  22.3717n
 +0:bs1_0[5]=   5.0000  0:bs1_0[5]=   5.0000  0:bs1_0[5]=   5.0000 
 +0:bs1_0[5]= 826.2692m 0:bs1_0[5]=   1.2439  0:bs1_0[5]=   4.1593 
 +0:bs1_0[5]= 328.8009m 0:bs1_0[5]=   1.3322  0:bs1_0[6]=  11.1858n
 +0:bs1_0[6]=   5.0000  0:bs2_0[1]=   1.6637  0:bs1_0[6]=  22.3717n
 +0:bs1_0[6]=   4.1900  0:bs1_0[6]=  44.7519n 0:bs1_0[6]=   5.0000 
 +0:bs1_0[6]=   1.2439  0:bs1_0[6]=  12.7954n 0:bs1_0[6]=   1.2439 
 +0:bs1_0[6]=   5.0000  0:bs1_0[6]=   4.1900  0:bs1_0[6]=  30.3597n
 +0:bs2_0[1]=   2.4171  0:bs1_0[6]=   3.7508  0:bs1_0[6]=   5.0000 
 +0:bs1_0[6]=   5.0000  0:bs1_0[6]=   5.0000  0:bs1_0[6]=   5.0000 
 +0:bs1_0[6]=   3.7508  0:bs1_0[6]=   1.1572  0:bs1_0[6]=   5.0000 
 +0:bs1_0[6]=   5.0000  0:bs1_0[6]=   5.0000  0:bs2_0[1]=   2.3557 
 +0:bs1_0[6]=   5.0000  0:bs1_0[6]=   5.0000  0:bs1_0[6]=   5.0000 
 +0:bs1_0[6]=   5.0000  0:bs1_0[6]=   5.0000  0:bs1_0[6]= 826.2692m
 +0:bs1_0[6]=   1.2439  0:bs1_0[6]=   4.1593  0:bs1_0[6]= 328.8009m
 +0:bs1_0[6]=   1.3322  0:bs2_0[1]=   3.5835n 0:bs1_0[7]=  11.1858n
 +0:bs1_0[7]=   5.0000  0:bs1_0[7]=  22.3717n 0:bs1_0[7]=   4.1900 
 +0:bs1_0[7]=  44.7519n 0:bs1_0[7]=   5.0000  0:bs1_0[7]=   1.2439 
 +0:bs1_0[7]=  12.7954n 0:bs1_0[7]=   1.2439  0:bs1_0[7]=   5.0000 
 +0:bs2_0[1]=   3.5257  0:bs1_0[7]=   4.1900  0:bs1_0[7]=  30.3597n
 +0:bs1_0[7]=   3.7508  0:bs1_0[7]=   5.0000  0:bs1_0[7]=   5.0000 
 +0:bs1_0[7]=   5.0000  0:bs1_0[7]=   5.0000  0:bs1_0[7]=   3.7508 
 +0:bs1_0[7]=   1.1572  0:bs1_0[7]=   5.0000  0:bs2_0[1]= 154.3807a
 +0:bs1_0[7]=   5.0000  0:bs1_0[7]=   5.0000  0:bs1_0[7]=   5.0000 
 +0:bs1_0[7]=   5.0000  0:bs1_0[7]=   5.0000  0:bs1_0[7]=   5.0000 
 +0:bs1_0[7]=   5.0000  0:bs1_0[7]= 826.2692m 0:bs1_0[7]=   1.2439 
 +0:bs1_0[7]=   4.1593  0:bs2_0[1]=  69.2121n 0:bs1_0[7]= 328.8009m
 +0:bs1_0[7]=   1.3322  0:bs2_0[1]=  34.6061n 0:bs2_0[1]=   1.2439 
 +0:bs2_0[1]=   3.7508  0:bs2_0[1]=   3.3385  0:bs2_0[1]=   5.0000 
 +0:bs2_0[1]=   5.0000  0:bs1_0[0]=   5.0000  0:bs1_0[0]=  12.7954n
 +0:bs1_0[0]=   5.0000  0:bs1_0[0]=  12.7826n 0:bs1_0[1]=  31.9693n
 +0:bs1_0[1]=  12.7954n 0:bs1_0[1]=  73.5020n 0:bs1_0[1]=  12.7826n
 +0:bs1_0[2]=   5.0000  0:bs1_0[2]=  12.7954n 0:bs1_0[2]=   5.0000 
 +0:bs1_0[2]=  12.7826n 0:bs1_0[3]=  31.9693n 0:bs1_0[3]=  12.7954n
 +0:bs1_0[3]=  73.5020n 0:bs1_0[3]=  12.7826n 0:bs1_0[4]=  31.9693n
 +0:bs1_0[4]=  12.7954n 0:bs1_0[4]=  73.5020n 0:bs1_0[4]=  12.7826n
 +0:bs1_0[5]=  31.9693n 0:bs1_0[5]=  12.7954n 0:bs1_0[5]=  73.5020n
 +0:bs1_0[5]=  12.7826n 0:bs1_0[6]=  31.9693n 0:bs1_0[6]=  12.7954n
 +0:bs1_0[6]=  73.5020n 0:bs1_0[6]=  25.6739n 0:bs1_0[7]=  73.5020n
 +0:bs1_0[7]=  25.6739n 0:bs2_0[0]=  38.1939n 0:bs2_0[0]=   2.4171 
 +0:bs2_0[1]=   5.0000  0:bs2_0[2]= 227.5451n 0:bs2_0[3]= 227.5451n
 +0:bs2_0[4]=   5.0000  0:bs2_0[5]= 266.2190n 0:bs2_0[6]=   5.0000 
 +0:bs2_0[7]= 170.0236n 0:clk     =   0.      0:cout    =  31.9693n
 +0:en      =   0.      0:init    =   0.      0:mcand_0 =   5.0000 
 +0:mcand_1 =   5.0000  0:mcand_2 =   0.      0:mcand_3 =   0.     
 +0:mcand_4 =   0.      0:mcand_5 =   0.      0:mcand_6 =   0.     
 +0:mcand_7 =   0.      0:mplier_0=   5.0000  0:mplier_1=   5.0000 
 +0:mplier_2=   5.0000  0:mplier_3=   5.0000  0:mplier_4=   5.0000 
 +0:mplier_5=   5.0000  0:mplier_6=   5.0000  0:mplier_7=   5.0000 
 +0:q_0     = 125.0671n 0:q_1     =   5.0000  0:q_10    =  60.7194n
 +0:q_11    =  60.7194n 0:q_12    =  60.7194n 0:q_13    =   5.0000 
 +0:q_14    =  60.7194n 0:q_15    =   5.0000  0:q_2     = 189.1974n
 +0:q_3     =   5.0000  0:q_4     = 163.4148n 0:q_5     = 163.4148n
 +0:q_6     =   5.0000  0:q_7     =   2.4171  0:q_8     =  60.7194n
 +0:q_9     =  60.7194n 0:vdd     =   5.0000 


 maximum nodal capacitance=   1.092E-11         on node     0:vdd             

    nodal  capacitance table 

    node    =    cap      node    =    cap      node    =    cap

 +0:bs2_0[1]=   7.1912f 0:bs2_0[1]=  15.1362f 0:bs2_0[1]=   7.9353f
 +0:bs2_0[1]=  43.5808f 0:bs2_0[1]=  33.9600f 0:bs2_0[2]=   6.8417f
 +0:bs2_0[2]=  77.8886f 0:bs2_0[2]=  43.6372f 0:bs2_0[2]=   6.8417f
 +0:bs2_0[2]=  34.0375f 0:bs2_0[2]=  33.2949f 0:bs2_0[2]=   6.2066f
 +0:bs2_0[2]=  45.5988f 0:bs2_0[2]=   6.2066f 0:bs2_0[2]=  48.5835f
 +0:bs2_0[2]=   3.6404f 0:bs2_0[2]=   6.8417f 0:bs2_0[2]=   8.7099f
 +0:bs2_0[2]=   7.1912f 0:bs2_0[2]=   8.7099f 0:bs2_0[2]=  10.9766f
 +0:bs2_0[2]=  15.1362f 0:bs2_0[2]=   8.7099f 0:bs2_0[2]=   7.9353f
 +0:bs2_0[2]=  43.5450f 0:bs2_0[2]=  33.9600f 0:bs2_0[3]=   6.8417f
 +0:bs2_0[3]=  75.2824f 0:bs2_0[3]=  49.2542f 0:bs2_0[3]=   3.6404f
 +0:bs2_0[3]=  34.8082f 0:bs2_0[3]=  37.1473f 0:bs2_0[3]=   4.1113f
 +0:bs2_0[3]=  44.4934f 0:bs2_0[3]=   4.1113f 0:bs2_0[3]=  48.5835f
 +0:bs2_0[3]=   3.6404f 0:bs2_0[3]=   6.8417f 0:bs2_0[3]=   8.7099f
 +0:bs2_0[3]=  15.1362f 0:bs2_0[3]=  13.6773f 0:bs2_0[3]=  13.6773f
 +0:bs2_0[3]=  15.1362f 0:bs2_0[3]=   8.7099f 0:bs2_0[3]=   7.9353f
 +0:bs2_0[3]=  46.1783f 0:bs2_0[3]=  33.9600f 0:bs2_0[4]=   6.8417f
 +0:bs2_0[4]=  77.9872f 0:bs2_0[4]=  43.5448f 0:bs2_0[4]=   3.6404f
 +0:bs2_0[4]=  34.8082f 0:bs2_0[4]=  37.1473f 0:bs2_0[4]=   4.1113f
 +0:bs2_0[4]=  44.5030f 0:bs2_0[4]=   4.7127f 0:bs2_0[4]=  46.8797f
 +0:bs2_0[4]=   6.8417f 0:bs2_0[4]=   4.1113f 0:bs2_0[4]=   8.7099f
 +0:bs2_0[4]=  15.1362f 0:bs2_0[4]=  13.6773f 0:bs2_0[4]=  13.6773f
 +0:bs2_0[4]=   7.1912f 0:bs2_0[4]=  15.1362f 0:bs2_0[4]=   7.9353f
 +0:bs2_0[4]=  43.5689f 0:bs2_0[4]=  33.9600f 0:bs2_0[5]=   6.8417f
 +0:bs2_0[5]=  77.8886f 0:bs2_0[5]=  43.6372f 0:bs2_0[5]=   6.8417f
 +0:bs2_0[5]=  34.0375f 0:bs2_0[5]=  33.2949f 0:bs2_0[5]=   6.2066f
 +0:bs2_0[5]=  45.5988f 0:bs2_0[5]=   6.2066f 0:bs2_0[5]=  48.5835f
 +0:bs2_0[5]=   3.6404f 0:bs2_0[5]=   6.8417f 0:bs2_0[5]=   8.7099f
 +0:bs2_0[5]=   7.1912f 0:bs2_0[5]=   8.7099f 0:bs2_0[5]=  10.9766f
 +0:bs2_0[5]=  15.1362f 0:bs2_0[0]=   6.8417f 0:bs2_0[5]=   8.7099f
 +0:bs2_0[5]=   7.9353f 0:bs2_0[5]=  43.5450f 0:bs2_0[5]=  33.9600f
 +0:bs2_0[6]=   6.8417f 0:bs2_0[6]=  77.9872f 0:bs2_0[6]=  43.5448f
 +0:bs2_0[6]=   3.6404f 0:bs2_0[6]=  34.8082f 0:bs2_0[6]=  37.1473f
 +0:bs2_0[0]=  77.9331f 0:bs2_0[6]=   4.1113f 0:bs2_0[6]=  44.5030f
 +0:bs2_0[6]=   4.7127f 0:bs2_0[6]=  46.8797f 0:bs2_0[6]=   6.8417f
 +0:bs2_0[6]=   4.1113f 0:bs2_0[6]=   8.7099f 0:bs2_0[6]=  15.1362f
 +0:bs2_0[6]=  13.6773f 0:bs2_0[6]=  13.6773f 0:bs2_0[0]=  48.8938f
 +0:bs2_0[6]=   7.1912f 0:bs2_0[6]=  15.1362f 0:bs2_0[6]=   7.9353f
 +0:bs2_0[6]=  43.5689f 0:bs2_0[6]=  34.0868f 0:bs2_0[7]=   6.8417f
 +0:bs2_0[7]=  77.8886f 0:bs2_0[7]=  43.6372f 0:bs2_0[7]=   6.8417f
 +0:bs2_0[7]=  34.0375f 0:bs2_0[0]=   3.6404f 0:bs2_0[7]=  33.2949f
 +0:bs2_0[7]=   6.2066f 0:bs2_0[7]=  45.5988f 0:bs2_0[7]=   6.2066f
 +0:bs2_0[7]=  48.5835f 0:bs2_0[7]=   3.6404f 0:bs2_0[7]=   6.8417f
 +0:bs2_0[7]=   8.7099f 0:bs2_0[7]=   7.1912f 0:bs2_0[7]=   8.7099f
 +0:bs2_0[0]=  34.8082f 0:bs2_0[7]=  10.9766f 0:bs2_0[7]=  15.1362f
 +0:bs2_0[7]=   8.7099f 0:bs2_0[7]=   7.9353f 0:bs2_0[7]=  43.5450f
 +0:bs2_0[7]=  34.0868f 0:bs1_0[0]=   6.8417f 0:bs1_0[0]=  77.9872f
 +0:bs1_0[0]=  43.5448f 0:bs1_0[0]=   3.6404f 0:bs2_0[0]=  37.1473f
 +0:bs1_0[0]=  34.7999f 0:bs1_0[0]=  37.1473f 0:bs1_0[0]=   4.1113f
 +0:bs1_0[0]=  44.5030f 0:bs1_0[0]=   4.7127f 0:bs1_0[0]=  46.8797f
 +0:bs1_0[0]=   6.8417f 0:bs1_0[0]=   4.1113f 0:bs1_0[0]=   8.7099f
 +0:bs1_0[0]=  15.1362f 0:bs2_0[0]=   4.1113f 0:bs1_0[0]=  13.6773f
 +0:bs1_0[0]=  13.6773f 0:bs1_0[0]=   7.1912f 0:bs1_0[0]=  15.1362f
 +0:bs1_0[0]=   7.9353f 0:bs1_0[0]=  45.6366f 0:bs1_0[0]=  34.2125f
 +0:bs1_0[0]=  73.9028f 0:bs1_0[0]=  13.6773f 0:bs1_0[0]=  48.7255f
 +0:bs2_0[0]=  44.4985f 0:bs1_0[0]=  47.9379f 0:bs1_0[0]=  15.1362f
 +0:bs1_0[0]=  13.6773f 0:bs1_0[0]=  13.3374f 0:bs1_0[0]=   3.6404f
 +0:bs1_0[0]=  21.9060f 0:bs1_0[0]=   4.7127f 0:bs1_0[0]=   5.3478f
 +0:bs1_0[1]=   6.8417f 0:bs1_0[1]=  77.8886f 0:bs2_0[0]=   4.3487f
 +0:bs1_0[1]=  43.6372f 0:bs1_0[1]=   6.8417f 0:bs1_0[1]=  34.0293f
 +0:bs1_0[1]=  33.2949f 0:bs1_0[1]=   6.2066f 0:bs1_0[1]=  45.5988f
 +0:bs1_0[1]=   6.2066f 0:bs1_0[1]=  48.5835f 0:bs1_0[1]=   3.6404f
 +0:bs1_0[1]=   6.8417f 0:bs2_0[0]=  49.3070f 0:bs1_0[1]=   8.7099f
 +0:bs1_0[1]=   7.1912f 0:bs1_0[1]=   8.7099f 0:bs1_0[1]=  10.9766f
 +0:bs1_0[1]=  15.1362f 0:bs1_0[1]=   8.7099f 0:bs1_0[1]=   7.9353f
 +0:bs1_0[1]=  45.6366f 0:bs1_0[1]=  36.9132f 0:bs1_0[1]=  73.8990f
 +0:bs2_0[0]=   4.7733f 0:bs1_0[1]=  15.1362f 0:bs1_0[1]=  50.1844f
 +0:bs1_0[1]=  53.8384f 0:bs1_0[1]=  15.1362f 0:bs1_0[1]=  15.1362f
 +0:bs1_0[1]=  10.3682f 0:bs1_0[1]=   4.1113f 0:bs1_0[1]=  14.8806f
 +0:bs1_0[1]=   4.4803f 0:bs1_0[1]=   4.0867f 0:bs2_0[0]=   6.7942f
 +0:bs1_0[2]=   6.8417f 0:bs1_0[2]=  77.9872f 0:bs1_0[2]=  43.5448f
 +0:bs1_0[2]=   3.6404f 0:bs1_0[2]=  34.7999f 0:bs1_0[2]=  37.1473f
 +0:bs1_0[2]=   4.1113f 0:bs1_0[2]=  44.5030f 0:bs1_0[2]=   4.7127f
 +0:bs1_0[2]=  46.8797f 0:bs2_0[0]=   8.7099f 0:bs1_0[2]=   6.8417f
 +0:bs1_0[2]=   4.1113f 0:bs1_0[2]=   8.7099f 0:bs1_0[2]=  15.1362f
 +0:bs1_0[2]=  13.6773f 0:bs1_0[2]=  13.6773f 0:bs1_0[2]=   7.1912f
 +0:bs1_0[2]=  15.1362f 0:bs1_0[2]=   7.9353f 0:bs1_0[2]=  45.6366f
 +0:bs2_0[0]=  15.1362f 0:bs1_0[2]=  34.2125f 0:bs1_0[2]=  73.9028f
 +0:bs1_0[2]=  13.6773f 0:bs1_0[2]=  48.7255f 0:bs1_0[2]=  47.9379f
 +0:bs1_0[2]=  15.1362f 0:bs1_0[2]=  13.6773f 0:bs1_0[2]=  13.3374f
 +0:bs1_0[2]=   3.6404f 0:bs1_0[2]=  21.9060f 0:bs2_0[0]=  13.6773f
 +0:bs1_0[2]=   4.7127f 0:bs1_0[2]=   5.3478f 0:bs1_0[3]=   6.8417f
 +0:bs1_0[3]=  77.8886f 0:bs1_0[3]=  43.6372f 0:bs1_0[3]=   6.8417f
 +0:bs1_0[3]=  34.0293f 0:bs1_0[3]=  33.2949f 0:bs1_0[3]=   6.2066f
 +0:bs1_0[3]=  45.5988f 0:bs2_0[0]=  13.6773f 0:bs1_0[3]=   6.2066f
 +0:bs1_0[3]=  48.5835f 0:bs1_0[3]=   3.6404f 0:bs1_0[3]=   6.8417f
 +0:bs1_0[3]=   8.7099f 0:bs1_0[3]=   7.1912f 0:bs1_0[3]=   8.7099f
 +0:bs1_0[3]=  10.9766f 0:bs1_0[3]=  15.1362f 0:bs1_0[3]=   8.7099f
 +0:bs2_0[0]=  10.3533f 0:bs1_0[3]=   7.9353f 0:bs1_0[3]=  45.6366f
 +0:bs1_0[3]=  36.9132f 0:bs1_0[3]=  73.8990f 0:bs1_0[3]=  15.1362f
 +0:bs1_0[3]=  50.1844f 0:bs1_0[3]=  53.8384f 0:bs1_0[3]=  15.1362f
 +0:bs1_0[3]=  15.1362f 0:bs1_0[3]=  10.3682f 0:bs2_0[0]=  14.2134f
 +0:bs1_0[3]=   4.1113f 0:bs1_0[3]=  14.8806f 0:bs1_0[3]=   4.4803f
 +0:bs1_0[3]=   4.0867f 0:bs1_0[4]=   6.8417f 0:bs1_0[4]=  75.2824f
 +0:bs1_0[4]=  49.2542f 0:bs1_0[4]=   3.6404f 0:bs1_0[4]=  34.7999f
 +0:bs1_0[4]=  37.1473f 0:bs2_0[0]=   7.9353f 0:bs1_0[4]=   4.1113f
 +0:bs1_0[4]=  44.4934f 0:bs1_0[4]=   4.1113f 0:bs1_0[4]=  48.5835f
 +0:bs1_0[4]=   3.6404f 0:bs1_0[4]=   6.8417f 0:bs1_0[4]=   8.7099f
 +0:bs1_0[4]=  15.1362f 0:bs1_0[4]=  13.6773f 0:bs1_0[4]=  13.6773f
 +0:bs2_0[0]=  46.2382f 0:bs1_0[4]=  15.1362f 0:bs1_0[4]=   8.7099f
 +0:bs1_0[4]=   7.9353f 0:bs1_0[4]=  48.2699f 0:bs1_0[4]=  36.9132f
 +0:bs1_0[4]=  73.8990f 0:bs1_0[4]=  15.1362f 0:bs1_0[4]=  50.1844f
 +0:bs1_0[4]=  53.8384f 0:bs1_0[4]=  15.1362f 0:bs2_0[0]=  33.9600f
 +0:bs1_0[4]=  15.1362f 0:bs1_0[4]=  10.3682f 0:bs1_0[4]=   4.1113f
 +0:bs1_0[4]=  14.8806f 0:bs1_0[4]=   4.4803f 0:bs1_0[4]=   4.0867f
 +0:bs1_0[5]=   6.8417f 0:bs1_0[5]=  75.2824f 0:bs1_0[5]=  49.2542f
 +0:bs1_0[5]=   3.6404f 0:bs2_0[1]=   6.8417f 0:bs1_0[5]=  34.7999f
 +0:bs1_0[5]=  37.1473f 0:bs1_0[5]=   4.1113f 0:bs1_0[5]=  44.4934f
 +0:bs1_0[5]=   4.1113f 0:bs1_0[5]=  48.5835f 0:bs1_0[5]=   3.6404f
 +0:bs1_0[5]=   6.8417f 0:bs1_0[5]=   8.7099f 0:bs1_0[5]=  15.1362f
 +0:bs2_0[1]=  80.6380f 0:bs1_0[5]=  13.6773f 0:bs1_0[5]=  13.6773f
 +0:bs1_0[5]=  15.1362f 0:bs1_0[5]=   8.7099f 0:bs1_0[5]=   7.9353f
 +0:bs1_0[5]=  48.2699f 0:bs1_0[5]=  36.9132f 0:bs1_0[5]=  73.8990f
 +0:bs1_0[5]=  15.1362f 0:bs1_0[5]=  51.4263f 0:bs2_0[1]=  43.2324f
 +0:bs1_0[5]=  53.8384f 0:bs1_0[5]=  15.1362f 0:bs1_0[5]=  15.1362f
 +0:bs1_0[5]=  10.3682f 0:bs1_0[5]=   4.1113f 0:bs1_0[5]=  14.8806f
 +0:bs1_0[5]=   4.4803f 0:bs1_0[5]=   4.0867f 0:bs1_0[6]=   6.8417f
 +0:bs1_0[6]=  75.2824f 0:bs2_0[1]=   4.7733f 0:bs1_0[6]=  49.2542f
 +0:bs1_0[6]=   3.6404f 0:bs1_0[6]=  34.7999f 0:bs1_0[6]=  37.1473f
 +0:bs1_0[6]=   4.1113f 0:bs1_0[6]=  44.4934f 0:bs1_0[6]=   4.1113f
 +0:bs1_0[6]=  48.5835f 0:bs1_0[6]=   3.6404f 0:bs1_0[6]=   6.8417f
 +0:bs2_0[1]=  34.5076f 0:bs1_0[6]=   8.7099f 0:bs1_0[6]=  15.1362f
 +0:bs1_0[6]=  13.6773f 0:bs1_0[6]=  13.6773f 0:bs1_0[6]=  15.1362f
 +0:bs1_0[6]=   8.7099f 0:bs1_0[6]=   7.9353f 0:bs1_0[6]=  48.2699f
 +0:bs1_0[6]=  36.9132f 0:bs1_0[6]=  73.8990f 0:bs2_0[1]=  34.0609f
 +0:bs1_0[6]=  15.1362f 0:bs1_0[6]=  50.1844f 0:bs1_0[6]=  53.8384f
 +0:bs1_0[6]=  15.1362f 0:bs1_0[6]=  15.1362f 0:bs1_0[6]=  10.3682f
 +0:bs1_0[6]=   4.1113f 0:bs1_0[6]=  14.8806f 0:bs1_0[6]=   4.4803f
 +0:bs1_0[6]=   4.0867f 0:bs2_0[1]=   6.1998f 0:bs1_0[7]=   6.8417f
 +0:bs1_0[7]=  75.2824f 0:bs1_0[7]=  49.2542f 0:bs1_0[7]=   3.6404f
 +0:bs1_0[7]=  34.7999f 0:bs1_0[7]=  37.1473f 0:bs1_0[7]=   4.1113f
 +0:bs1_0[7]=  44.4934f 0:bs1_0[7]=   4.1113f 0:bs1_0[7]=  48.5835f
 +0:bs2_0[1]=  47.7108f 0:bs1_0[7]=   3.6404f 0:bs1_0[7]=   6.8417f
 +0:bs1_0[7]=   8.7099f 0:bs1_0[7]=  15.1362f 0:bs1_0[7]=  13.6773f
 +0:bs1_0[7]=  13.6773f 0:bs1_0[7]=  15.1362f 0:bs1_0[7]=   8.7099f
 +0:bs1_0[7]=   7.9353f 0:bs1_0[7]=  48.2699f 0:bs2_0[1]=   6.1998f
 +0:bs1_0[7]=  36.9132f 0:bs1_0[7]=  73.8990f 0:bs1_0[7]=  15.1362f
 +0:bs1_0[7]=  47.7007f 0:bs1_0[7]=  53.8384f 0:bs1_0[7]=  15.1362f
 +0:bs1_0[7]=  15.1362f 0:bs1_0[7]=  10.3682f 0:bs1_0[7]=   4.1113f
 +0:bs1_0[7]=  14.8806f 0:bs2_0[1]=  46.8797f 0:bs1_0[7]=   4.4803f
 +0:bs1_0[7]=   4.0867f 0:bs2_0[1]=   6.8417f 0:bs2_0[1]=   4.1113f
 +0:bs2_0[1]=   8.7099f 0:bs2_0[1]=  10.3533f 0:bs2_0[1]=  13.5597f
 +0:bs2_0[1]=  13.5597f 0:bs1_0[0]=  50.1741f 0:bs1_0[0]=  67.5029f
 +0:bs1_0[0]=  68.5538f 0:bs1_0[0]=  86.5224f 0:bs1_0[1]=  43.3487f
 +0:bs1_0[1]=  67.4049f 0:bs1_0[1]=  78.2360f 0:bs1_0[1]=  86.4682f
 +0:bs1_0[2]=  50.1741f 0:bs1_0[2]=  67.5029f 0:bs1_0[2]=  68.5538f
 +0:bs1_0[2]=  86.5224f 0:bs1_0[3]=  43.3487f 0:bs1_0[3]=  67.4049f
 +0:bs1_0[3]=  78.2360f 0:bs1_0[3]=  86.4682f 0:bs1_0[4]=  43.3487f
 +0:bs1_0[4]=  67.4049f 0:bs1_0[4]=  78.2360f 0:bs1_0[4]=  86.4682f
 +0:bs1_0[5]=  43.3487f 0:bs1_0[5]=  67.4049f 0:bs1_0[5]=  78.2360f
 +0:bs1_0[5]=  86.4682f 0:bs1_0[6]=  43.3487f 0:bs1_0[6]=  67.4049f
 +0:bs1_0[6]=  78.2360f 0:bs1_0[6]=  86.4682f 0:bs1_0[7]=  78.2360f
 +0:bs1_0[7]=  87.9845f 0:bs2_0[0]=  41.9926f 0:bs2_0[0]=  50.8902f
 +0:bs2_0[1]=  55.7785f 0:bs2_0[2]=  51.5185f 0:bs2_0[3]=  51.5185f
 +0:bs2_0[4]=  55.7785f 0:bs2_0[5]=  51.5185f 0:bs2_0[6]=  55.7785f
 +0:bs2_0[7]=  36.0282f 0:clk     = 472.1212f 0:cout    =  40.3950f
 +0:en      = 483.9051f 0:init    = 678.0969f 0:mcand_0 =  21.1439f
 +0:mcand_1 =  21.1439f 0:mcand_2 =  19.7106f 0:mcand_3 =  19.6170f
 +0:mcand_4 =  19.7106f 0:mcand_5 =  19.7106f 0:mcand_6 =  19.7106f
 +0:mcand_7 =  19.7106f 0:mplier_0=  12.6004f 0:mplier_1=  12.6004f
 +0:mplier_2=  12.6004f 0:mplier_3=  12.5500f 0:mplier_4=  12.6004f
 +0:mplier_5=  12.6004f 0:mplier_6=  12.6004f 0:mplier_7=  12.6004f
 +0:q_0     = 328.8000f 0:q_1     =  53.5188f 0:q_10    =  52.8303f
 +0:q_11    =  52.7439f 0:q_12    =  52.7439f 0:q_13    =  57.4203f
 +0:q_14    =  52.7439f 0:q_15    =  57.5067f 0:q_2     =  48.8064f
 +0:q_3     =  53.5188f 0:q_4     =  48.8424f 0:q_5     =  48.8424f
 +0:q_6     =  53.5188f 0:q_7     =  47.6626f 0:q_8     =  52.7439f
 +0:q_9     =  52.7439f 0:vdd     =  10.9245p

 

 **** voltage sources

 subckt                                                                    
 element  0:vclk     0:vdd      0:ven      0:vinit    0:vmc0     0:vmc1    
  volts      0.         5.0000     0.         0.         5.0000     5.0000 
  current    0.        -1.1640m    0.         0.       -15.0850p  -15.0850p
  power      0.         5.8199m    0.         0.        75.4252p   75.4252p

 subckt                                                                    
 element  0:vmc2     0:vmc3     0:vmc4     0:vmc5     0:vmc6     0:vmc7    
  volts      0.         0.         0.         0.         0.         0.     
  current    5.0000p    5.0000p    5.0000p    5.0000p    5.0000p    5.0000p
  power      0.         0.         0.         0.         0.         0.     

 subckt                                                                    
 element  0:vmp0     0:vmp1     0:vmp2     0:vmp3     0:vmp4     0:vmp5    
  volts      5.0000     5.0000     5.0000     5.0000     5.0000     5.0000 
  current  -15.0850p   -5.0000p  -15.0850p   -5.0000p  -15.0850p  -15.0850p
  power     75.4252p   25.0000p   75.4252p   25.0000p   75.4252p   75.4252p

 subckt                        
 element  0:vmp6     0:vmp7    
  volts      5.0000     5.0000 
  current   -5.0000p  -10.1675p
  power     25.0000p   50.8375p

     total voltage source power dissipation=    5.8199m       watts




 **** mosfets


 subckt                                                                    
 element  0:m1000    0:m1001    0:m1002    0:m1003    0:m1004    0:m1005   
 model    0:cmosntt  0:cmosntt  0:cmosntt  0:cmosntt  0:cmosntt  0:cmosntt 
 region       Linear     Linear     Cutoff     Cutoff     Cutoff     Cutoff
  id         8.7508p    8.7508p   60.8704f   11.8209p    0.       -24.5061f
  ibs        0.         0.         0.         0.         0.         0.     
  ibd        0.         0.         0.         0.         0.         0.     
  vgs        5.0000     5.0000    57.2011n  809.9831m   -5.0000    -1.2439 
  vds       11.1858n   11.1858n    4.1900   809.9830m   -3.7561    -1.2439 
  vbs        0.       -11.1858n    0.        -4.1900    -5.0000    -1.2439 
  vth      699.7240m  699.7240m  647.1732m    1.1768   896.2738m  684.1235m
  vdsat      1.4215     1.4215    42.2397m   52.3981m   47.5097m   42.2420m
  vod        4.3003     4.3003  -647.1731m -366.7854m   -5.8963    -1.9280 
  beta     388.6356u  388.6356u  463.6339u  424.9742u  447.5141u  462.7920u
  gam eff    1.0307     1.0307     1.0307     1.3132     1.1430     1.0307 
  gm       599.1739f  599.1739f    1.4163p  316.3946p    0.       570.2361f
  gds      782.3150u  782.3150u   19.7438f    5.9284p    0.         8.1345f
  gmb      508.7354f  508.7354f  557.6377f   15.9385p    0.       229.2590f
  cdtot      5.7055f    6.8732f    3.1392f    4.0528f    3.6102f  501.1063a
  cgtot      4.8182f    4.8182f    2.8454f    2.0619f    2.7471f    2.8673f
  cstot      1.1202p    1.1362f  501.1065a  501.1682a  501.1061a  501.1061a
  cbtot      1.1248p    6.9007f    4.6886f    4.6827f    5.0363f    2.0730f
  cgs        1.6775f    1.6775f  309.7882a  437.9113a  485.2295a  484.8451a
  cgd        2.0893f    2.0893f  485.1066a  492.9768a  334.6526a  309.3903a



 subckt                                                                    
 element  0:m1006    0:m1007    0:m1008    0:m1009    0:m1010    0:m1011   
 model    0:cmosntt  0:cmosntt  0:cmosntt  0:cmosntt  0:cmosntt  0:cmosntt 
 region       Linear     Cutoff     Cutoff     Linear     Linear     Linear
  id        10.0100p   19.2624f  1.734e-22 -325.7334u -325.7334u  181.9518u
  ibs        0.         0.         0.         0.         0.         0.     
  ibd        0.         0.         0.         0.         0.         0.     
  vgs        5.0000    12.7954n -584.1179m    2.6443   753.4373m    2.3557 
  vds       12.7954n  584.1180m    1.7716  -692.0765m   -1.6637   451.6702m
  vbs        0.         0.      -584.1180m   -2.3557    -1.6637     0.     
  vth      699.7240m  692.3981m  816.0567m  989.7836m  678.8586m  694.0592m
  vdsat      1.4215    42.2425m   45.3815m  963.9124m  733.3551m  712.1696m
  vod        4.3003  -692.3980m   -1.4002     1.6545    74.5787m    1.6617 
  beta     388.6356u  462.5989u  454.3033u  406.3564u  442.3906u  443.0008u
  gam eff    1.0307     1.0307     1.0897     1.1725     1.0307     1.0307 
  gm       685.3921f  448.2252f  4.305e-21  104.2621u  247.8354u   94.2143u
  gds      782.3150u    8.1985f  5.966e-23  362.6873u   22.4453u  310.8669u
  gmb      581.9399f  181.0684f  1.267e-21   16.1750u   54.9727u   29.7532u
  cdtot      6.8732f    3.8476f    4.5397f    4.2829f    1.9323f    4.9532f
  cgtot      4.8182f    2.8723f    2.8108f    4.7402f    4.2339f    4.7357f
  cstot      1.1362f  501.1062a  501.1061a    1.4510f  490.4164a    1.4032f
  cbtot      6.9007f    5.4248f    6.0413f    4.3228f    1.6909f    5.2224f
  cgs        1.6775f  309.2923a  323.1609a    1.6626f  470.6790a    2.0799f
  cgd        2.0893f  484.7847a  485.0000a    2.0556f    2.7174f    1.6024f



 subckt                                                                    
 element  0:m1012    0:m1013    0:m1014    0:m1015    0:m1016    0:m1017   
 model    0:cmosntt  0:cmosptt  0:cmosptt  0:cmosptt  0:cmosptt  0:cmosptt 
 region     Saturati     Cutoff     Cutoff     Linear     Linear     Cutoff
  id       181.9518u   -3.3735f    0.       -26.3870p  -26.3870p  5.306e-21
  ibs        0.         0.         0.         0.         0.         0.     
  ibd        0.         0.         0.         0.         0.         0.     
  vgs        1.9041    -6.6711n    1.2492    -5.0000    -5.0000    72.9560n
  vds        1.9654    -1.2492    -3.7508   -39.8136n  -39.8136n   79.6272n
  vbs     -451.6702m    0.         1.2492     0.        39.8136n   79.6272n
  vth      786.8675m -849.7164m   -1.0743  -855.7622m -855.7622m -855.7622m
  vdsat    569.3614m  -48.7786m  -53.0135m   -2.3271    -2.3271   -48.7798m
  vod        1.1172   849.7164m    2.3234    -4.1442    -4.1442   855.7622m
  beta     443.7020u  363.0430u  333.6194u  228.3604u  228.3604u  362.3202u
  gam eff    1.0776   536.7083m  525.9594m  536.7083m  536.7083m  536.7083m
  gm       237.3165u   76.1495f    0.         3.3758p    3.3758p  1.198e-19
  gds        8.8771u    1.2451f    0.       662.7649u  662.7649u   66.6371f
  gmb       43.4933u   30.8302f    0.         2.0108p    2.0108p  4.916e-20
  cdtot      7.7548f    7.1345f    6.5971f   12.1019f   16.6326f    9.4012f
  cgtot      4.1954f    6.1535f    6.0166f   10.2469f   10.2469f    6.1666f
  cstot      1.8410f    2.2796p    1.5754f    3.0343f    3.0343f    1.5754f
  cbtot      8.8326f    2.2866p    7.9884f   10.3136f   14.8443f   10.9438f
  cgs        2.6229f    1.4826f    1.4877f    4.6535f    4.6535f    1.5639f
  cgd      467.4386a    1.5640f    1.5622f    4.8198f    4.8198f    1.4847f



 subckt                                                                    
 element  0:m1018    0:m1019    0:m1020    0:m1021    0:m1022    0:m1023   
 model    0:cmosptt  0:cmosptt  0:cmosptt  0:cmosptt  0:cmosptt  0:cmosptt 
 region       Linear     Cutoff     Linear     Cutoff     Linear     Linear
  id       5.887e-19  -10.0468f   -2.6496p   -5.3509f  325.7334u  325.7334u
  ibs        0.         0.         0.         0.         0.         0.     
  ibd        0.         0.         0.         0.         0.         0.     
  vgs       -5.0000   -79.6272n   -5.0000    -2.6733n   -2.3557  -921.4229m
  vds      888.1784a   -5.0000    -3.9978n   -2.6443   982.7836m    1.6615 
  vbs      888.1784a    0.         0.         3.9978n    2.6443     1.6615 
  vth     -855.7622m -831.5629m -855.7622m -842.9643m   -1.1487  -847.7208m
  vdsat     -2.3271   -48.7748m   -2.3271   -48.7772m   -1.5158    -1.1583 
  vod       -4.1442   831.5628m   -4.1442   842.9643m   -1.2070   -73.7021m
  beta     228.3604u  365.2332u  228.3604u  363.8542u  250.1621u  287.4828u
  gam eff  536.7083m  536.7083m  536.7083m  536.7083m  523.1901m  536.7083m
  gm       7.531e-20  226.7840f  338.9749f  120.7852f  140.0465u  264.2511u
  gds      662.7649u    2.4318f  662.7649u    1.6050f  233.0758u   49.6295u
  gmb      4.486e-20   90.4979f  201.9076f   48.6574f   26.8692u   63.9681u
  cdtot      3.0343f    6.5971f   12.1019f    8.5372f    8.7792f    4.3548f
  cgtot     10.2469f    6.1152f   10.2469f    6.1390f    9.8227f    8.9319f
  cstot      4.2762f    1.5754f    3.0343f    1.5754f    2.9023f    1.5741f
  cbtot      2.4879f    8.0963f   10.3136f   10.0565f    6.6985f    1.9833f
  cgs        4.8198f    1.4765f    4.6535f    1.4803f    3.3271f    1.5613f
  cgd        4.6535f    1.5641f    4.8198f    1.5640f    5.6989f    6.5253f



 subckt                                                                    
 element  0:m1024    0:m1025    0:m1026    0:m1027    0:m1028    0:m1029   
 model    0:cmosptt  0:cmosptt  0:cmosptt  0:cmosptt  0:cmosntt  0:cmosntt 
 region       Linear   Saturati     Linear     Linear     Cutoff     Cutoff
  id      -181.9517u -181.9517u   -4.4214p    4.4214p  371.0568f  1.046e-28
  ibs        0.         0.         0.         0.         0.         0.     
  ibd        0.         0.         0.         0.         0.         0.     
  vgs       -2.6443    -2.1063    -5.0000    -5.0000     0.        -1.1572 
  vds     -537.9707m   -2.0449    -6.6711n    6.6711n    1.1572     3.8428 
  vbs        0.       537.9707m    0.         6.6711n    0.        -1.1572 
  vth     -853.1585m -964.8283m -855.7622m -855.7622m  602.6323m  792.3957m
  vdsat     -1.1886  -860.7957m   -2.3271    -2.3271    43.6805m   48.1266m
  vod       -1.7911    -1.1415    -4.1442    -4.1442  -602.6323m   -1.9496 
  beta     285.2863u  297.4167u  228.3604u  228.3604u    1.0209m    1.0021m
  gam eff  536.7083m  531.4787m  536.7083m  536.7083m    1.0081     1.1016 
  gm        87.2659u  248.1509u  565.6431f  565.6431f    8.6326p  2.680e-27
  gds      271.3712u   16.8893u  662.7649u  662.7649u  125.1505f    0.     
  gmb       30.2016u   48.7041u  336.9207f  336.9207f    3.2954p  5.689e-28
  cdtot     10.0007f   11.1589f   16.6326f    3.0343f    6.8342f    6.7565f
  cgtot     10.0707f    8.8600f   10.2469f   10.2469f    5.5650f    5.3280f
  cstot      3.5022f    4.2127f    3.0343f    4.2762f    1.1011f    1.1011f
  cbtot      8.6782f   11.3892f   14.8443f    2.4879f    9.5565f    9.1899f
  cgs        5.4059f    6.3638f    4.6535f    4.8198f  674.9384a  726.1975a
  cgd        3.8790f    1.5489f    4.8198f    4.6535f    1.0666f    1.0674f



 subckt                                                                    
 element  0:m1030    0:m1031    0:m1032    0:m1033    0:m1034    0:m1035   
 model    0:cmosptt  0:cmosntt  0:cmosptt  0:cmosptt  0:cmosntt  0:cmosntt 
 region       Linear     Cutoff     Linear     Cutoff     Linear     Cutoff
  id       -10.0818p   81.7995f    1.3466p    1.6993f    5.1136p    0.     
  ibs        0.         0.         0.         0.         0.         0.     
  ibd        0.         0.         0.         0.         0.         0.     
  vgs       -5.0000     0.        -2.4171     2.5829     2.5829    -2.4171 
  vds      -15.2117n    5.0000    11.6027n    2.5829    11.6027n    2.5829 
  vbs        0.         0.         2.5829     2.5829    -2.4171    -2.4171 
  vth     -855.7622m  637.0145m   -1.2887  -857.1172m    1.0737     1.0368 
  vdsat     -2.3271    42.2390m -915.9976m  -48.4471m  736.0093m   49.9499m
  vod       -4.1442  -637.0145m   -1.1284     3.4400     1.5092    -3.4539 
  beta     228.3604u  463.8595u  119.8221u  162.1591u  414.5994u  436.9506u
  gam eff  536.7083m    1.0307   511.3097m  533.5245m    1.2199     1.2199 
  gm         1.2898p    1.9032p  928.9544f   38.3579f    2.2544p    0.     
  gds      662.7649u   34.5733f  116.0612u  513.1479a  440.7285u    0.     
  gmb      768.2592f  745.0808f  153.7410f   15.6947f  276.6618f    0.     
  cdtot     15.1224f    3.7250f   11.9018f    6.5404f   13.0262f    3.7250f
  cgtot     10.2469f    2.8395f    4.8586f    3.0328f    4.8188f    2.6792f
  cstot      3.0343f  501.1066a    1.7572f  705.3938a    1.0492f  501.1061a
  cbtot     13.3341f    5.2684f   11.5363f    7.5015f   12.5780f    5.0658f
  cgs        4.6535f  309.8869a    2.1256f  700.2438a    1.7467f  352.1909a
  cgd        4.8198f  485.1763a    2.1332f  666.0413a    2.0643f  485.1624a



 subckt                                                                    
 element  0:m1036    0:m1037    0:m1038    0:m1039    0:m1040    0:m1041   
 model    0:cmosntt  0:cmosntt  0:cmosptt  0:cmosptt  0:cmosptt  0:cmosptt 
 region       Linear     Cutoff     Cutoff     Cutoff     Linear     Cutoff
  id        14.8696p   35.4330f    0.         0.       -10.0818p    0.     
  ibs        0.         0.         0.         0.         0.         0.     
  ibd        0.         0.         0.         0.         0.         0.     
  vgs        5.0000   -57.2011n  -38.1939n    5.0000    -5.0000   125.0671n
  vds       19.0072n    2.4171    19.0072n    2.4171   -15.2117n   12.7826n
  vbs      -38.1939n  -57.2011n    5.0000     5.0000     0.         5.0000 
  vth      699.7240m  669.4090m   -1.5195    -1.2716  -855.7622m   -1.5195 
  vdsat      1.4215    42.2410m  -57.5248m  -54.8932m   -2.3271   -57.5248m
  vod        4.3003  -669.4091m    1.5195     6.2716    -4.1442     1.5195 
  beta     388.6356u  463.1313u  124.2790u  137.5490u  228.3604u  124.2790u
  gam eff    1.0307     1.0307   497.8250m  511.3097m  536.7083m  497.8250m
  gm         1.0181p  824.4778f    0.         0.         1.2898p    0.     
  gds      782.3150u   10.7905f  1.260e-23    0.       662.7649u  1.260e-23
  gmb      864.4542f  328.7272f    0.         0.       768.2592f    0.     
  cdtot      7.4570f  501.1061a    3.8130f  705.3938a   15.1224f    3.8130f
  cgtot      4.8182f    2.8584f    2.2439f    2.9426f   10.2469f    2.2439f
  cstot     10.8926f  501.1063a    8.4744f  705.3938a    3.0343f  652.8640f
  cbtot     17.2410f    2.0639f   11.7204f    1.5702f   13.3341f  656.1100f
  cgs        1.6775f  309.5563a  702.3300a  698.4490a    4.6535f  702.3300a
  cgd        2.0893f  484.9507a  697.8518a  673.8642a    4.8198f  697.8518a



 subckt                                                                    
 element  0:m1042    0:m1043    0:m1044    0:m1045    0:m1046    0:m1047   
 model    0:cmosptt  0:cmosntt  0:cmosntt  0:cmosntt  0:cmosntt  0:cmosntt 
 region       Cutoff     Linear     Cutoff     Cutoff     Linear     Linear
  id         0.        10.0000p -6.238e-21   81.7997f    8.7508p    8.7508p
  ibs        0.         0.         0.         0.         0.         0.     
  ibd        0.         0.         0.         0.         0.         0.     
  vgs        5.0000     5.0000   112.2845n  125.0671n    5.0000     5.0000 
  vds      -12.7826n   12.7826n  -12.7826n    5.0000    11.1858n   11.1858n
  vbs        5.0000     0.       -12.7826n    0.         0.       -11.1858n
  vth       -1.5195   699.7240m  699.7240m  637.0145m  699.7240m  699.7240m
  vdsat    -57.5248m    1.4215    42.2430m   42.2390m    1.4215     1.4215 
  vod        6.5195     4.3003  -699.7239m -637.0143m    4.3003     4.3003 
  beta     124.2790u  388.6356u  462.4266u  463.8595u  388.6356u  388.6356u
  gam eff  497.8250m    1.0307     1.0307     1.0307     1.0307     1.0307 
  gm         0.       684.7042f  1.451e-19    1.9032p  599.1739f  599.1739f
  gds        0.       782.3150u  487.9836f   34.5734f  782.3150u  782.3150u
  gmb        0.       581.3559f  5.975e-20  745.0829f  508.7354f  508.7354f
  cdtot      3.4528f    7.4570f    5.3793f    3.7250f    5.7055f    6.8732f
  cgtot      2.8946f    4.8182f    2.8769f    2.8395f    4.8182f    4.8182f
  cstot    705.3938a    1.1362f  501.1062a  501.1066a    1.1362f    1.1362f
  cbtot      4.2609f    7.4846f    6.9611f    5.2684f    5.7330f    6.9007f
  cgs      684.2357a    1.6775f  484.7309a  309.8869a    1.6775f    1.6775f
  cgd      696.7981a    2.0893f  309.2027a  485.1763a    2.0893f    2.0893f



 subckt                                                                    
 element  0:m1048    0:m1049    0:m1050    0:m1051    0:m1052    0:m1053   
 model    0:cmosntt  0:cmosntt  0:cmosntt  0:cmosntt  0:cmosntt  0:cmosntt 
 region       Linear     Linear     Cutoff     Linear   Saturati     Linear
  id       325.7334u  325.7334u  -34.7765f   -2.3905p  330.5653u  1.030e-19
  ibs        0.         0.         0.         0.         0.         0.     
  ibd        0.         0.         0.         0.         0.         0.     
  vgs        2.4171     3.3363    -2.3557     3.5257     2.3557     3.5257 
  vds        1.6637   692.0765m   -2.3557    -3.5835n    3.5257   154.3807a
  vbs        0.        -1.6637    -2.3557    -3.5835n    0.         0.     
  vth      678.8586m  989.7836m  670.1786m  699.7240m  655.5049m  699.7240m
  vdsat    733.3551m  963.9124m   42.2411m    1.0264   722.1259m    1.0264 
  vod        1.7382     2.3466    -3.0259     2.8260     1.7002     2.8260 
  beta     442.3906u  406.3564u  463.1136u  421.3189u  443.9622u  421.3189u
  gam eff    1.0307     1.1725     1.0307     1.0307     1.0307     1.0307 
  gm       247.8354u  104.2620u  809.2029f  390.1812f  262.7557u  1.681e-20
  gds       22.4453u  362.6873u   10.6108f  667.0937u    6.5870u  667.0937u
  gmb       54.9727u   16.1750u  322.7773f  207.4689f   57.3691u  8.938e-21
  cdtot      3.4926f    5.4896f    4.2116f    1.1429f    3.9070f    5.6987f
  cgtot      4.2339f    4.7402f    2.8589f    4.8191f    4.2317f    4.8191f
  cstot      1.9323f    1.2807f  501.1061a    1.9882f    1.9314f    1.1429f
  cbtot      4.6931f    5.3592f    5.7749f    2.0228f    5.1149f    5.7333f
  cgs        2.7174f    2.0556f  484.9453a    2.0820f    2.7107f    1.6854f
  cgd      470.6790a    1.6626f  309.5479a    1.6854f  467.4809a    2.0820f



 subckt                                                                    
 element  0:m1054    0:m1055    0:m1056    0:m1057    0:m1058    0:m1059   
 model    0:cmosntt  0:cmosntt  0:cmosntt  0:cmosntt  0:cmosntt  0:cmosptt 
 region       Cutoff     Linear     Linear     Cutoff     Cutoff     Cutoff
  id       3.377e-20  -27.0728p  -27.0728p   24.5062f    0.        -3.3735f
  ibs        0.         0.         0.         0.         0.         0.     
  ibd        0.         0.         0.         0.         0.         0.     
  vgs       22.3717n    5.0000     5.0000    69.2121n   -1.2439    -6.6711n
  vds       69.2121n  -34.6061n  -34.6061n    1.2439     3.7561    -1.2492 
  vbs     -154.3807a  -69.2121n  -34.6061n    0.        -1.2439     0.     
  vth      699.7240m  699.7240m  699.7240m  684.1235m  896.2738m -849.7164m
  vdsat     42.2430m    1.4215     1.4215    42.2420m   47.5097m  -48.7786m
  vod     -699.7240m    4.3003     4.3003  -684.1234m   -2.1401   849.7164m
  beta     462.4266u  388.6356u  388.6356u  462.7920u  447.5141u  363.0430u
  gam eff    1.0307     1.0307     1.0307     1.0307     1.1430   536.7083m
  gm       7.859e-19    1.8537p    1.8537p  570.2368f    0.        76.1495f
  gds      487.9818f  782.3150u  782.3149u    8.1345f    0.         1.2451f
  gmb      3.235e-19    1.5739p    1.5739p  229.2593f    0.        30.8302f
  cdtot      5.9631f    4.8467f    1.1362f    3.6102f    6.9489f    7.1345f
  cgtot      2.8769f    4.8182f    4.8182f    2.8673f    2.7471f    6.1535f
  cstot    501.1061a    1.9950f    1.9950f  501.1063a  501.1061a    1.5754f
  cbtot      7.5450f    5.7330f    2.0225f    5.1821f    8.3751f    8.6660f
  cgs      309.2027a    2.0893f    2.0893f  309.3903a  334.6526a    1.4826f
  cgd      484.7309a    1.6775f    1.6775f  484.8451a  485.2295a    1.5640f



 subckt                                                                    
 element  0:m1060    0:m1061    0:m1062    0:m1063    0:m1064    0:m1065   
 model    0:cmosptt  0:cmosptt  0:cmosptt  0:cmosptt  0:cmosptt  0:cmosptt 
 region       Cutoff     Linear     Linear     Cutoff     Linear     Linear
  id         0.      -325.7334u -325.7334u    5.3509f    2.6496p -330.5653u
  ibs        0.         0.         0.         0.         0.         0.     
  ibd        0.         0.         0.         0.         0.         0.     
  vgs        1.2492    -2.5829    -3.3385     2.6443    -1.4743    -2.6443 
  vds       -3.7508    -1.6615  -982.7837m    2.6443    14.6272n   -1.4743 
  vbs        1.2492     0.         1.6615     2.6443    14.6272n    0.     
  vth       -1.0743  -847.7208m   -1.1487  -842.9643m -855.7622m -848.6268m
  vdsat    -53.0135m   -1.1583    -1.5158   -48.7772m -499.9550m   -1.1907 
  vod        2.3234    -1.7352    -2.1898     3.4872  -618.5329m   -1.7956 
  beta     333.6194u  287.4828u  250.1621u  363.8542u  330.4560u  285.4479u
  gam eff  525.9594m  536.7083m  523.1901m  536.7083m  536.7083m  536.7083m
  gm         0.       264.2511u  140.0466u  120.7852f    3.6547p  248.6444u
  gds        0.        49.6295u  233.0757u    1.6050f  181.1428u   68.9957u
  gmb        0.        63.9681u   26.8692u   48.6574f    1.1486p   61.7138u
  cdtot      6.5971f    6.7669f    9.8641f    9.4012f    3.1519f    8.8551f
  cgtot      6.0166f    8.9319f    9.8227f    6.1390f   10.2578f    8.9470f
  cstot      1.5754f    4.3548f    3.5864f    1.5754f    4.1585f    4.3503f
  cbtot      7.9884f    7.1760f    8.4676f   10.9205f    2.4957f    9.2370f
  cgs        1.4877f    6.5253f    5.6989f    1.5640f    4.6780f    6.5295f
  cgd        1.5622f    1.5613f    3.3271f    1.4803f    4.7984f    1.5835f



 subckt                                                                    
 element  0:m1066    0:m1067    0:m1068    0:m1069    0:m1070    0:m1071   
 model    0:cmosptt  0:cmosptt  0:cmosptt  0:cmosptt  0:cmosptt  0:cmosptt 
 region       Linear     Cutoff     Cutoff     Cutoff     Linear     Linear
  id        -5.0100p  -10.0468f   11.0811p    7.8514f  -59.0087p  -59.0087p
  ibs        0.         0.         0.         0.         0.         0.     
  ibd        0.         0.         0.         0.         0.         0.     
  vgs       -1.4743    20.9869n  -46.8405n    4.0183    -5.0000    -5.0000 
  vds      -27.6580n   -5.0000   981.6865m    4.0183   -89.0341n  -89.0341n
  vbs        0.        27.6580n    5.0000     4.0183     0.        89.0341n
  vth     -855.7622m -831.5629m   -1.3981  -836.3141m -855.7622m -855.7622m
  vdsat   -499.9550m  -48.7748m  -57.0009m  -48.7758m   -2.3271    -2.3271 
  vod     -618.5329m  831.5629m    1.3981     4.8546    -4.1442    -4.1442 
  beta     330.4560u  365.2332u  294.7058u  364.6571u  228.3604u  228.3604u
  gam eff  536.7083m  536.7083m  510.5314m  536.7083m  536.7083m  536.7083m
  gm         6.9105p  226.7834f  295.9043p  177.2277f    7.5492p    7.5492p
  gds      181.1428u    2.4318f    5.3458p    2.0505f  662.7649u  662.7649u
  gmb        2.1719p   90.4977f   26.9079p   71.0085f    4.4966p    4.4966p
  cdtot     11.9843f    7.2230f    5.6158f    1.5754f   12.1019f   20.9574f
  cgtot     10.2578f    6.1152f    4.4077f    6.1250f   10.2469f   10.2469f
  cstot      3.1519f    1.5754f    1.5754f    1.5754f    3.0343f    3.0343f
  cbtot     10.3215f    8.7222f    5.3260f    3.0829f   10.3136f   19.1691f
  cgs        4.7984f    1.4765f    1.5692f    1.5641f    4.6535f    4.6535f
  cgd        4.6780f    1.5641f    1.5529f    1.4781f    4.8198f    4.8198f



 subckt                                                                    
 element  0:m1072    0:m1073    0:m1074    0:m1075    0:m1076    0:m1077   
 model    0:cmosptt  0:cmosptt  0:cmosntt  0:cmosntt  0:cmosptt  0:cmosntt 
 region       Linear     Linear     Cutoff     Cutoff     Linear     Cutoff
  id        -4.4214p    4.4214p  371.0568f  1.046e-28  -10.0818p   81.7995f
  ibs        0.         0.         0.         0.         0.         0.     
  ibd        0.         0.         0.         0.         0.         0.     
  vgs       -5.0000    -5.0000     0.        -1.1572    -5.0000     0.     
  vds       -6.6711n    6.6711n    1.1572     3.8428   -15.2117n    5.0000 
  vbs        0.         6.6711n    0.        -1.1572     0.         0.     
  vth     -855.7622m -855.7622m  602.6323m  792.3957m -855.7622m  637.0145m
  vdsat     -2.3271    -2.3271    43.6805m   48.1266m   -2.3271    42.2390m
  vod       -4.1442    -4.1442  -602.6323m   -1.9496    -4.1442  -637.0145m
  beta     228.3604u  228.3604u    1.0209m    1.0021m  228.3604u  463.8595u
  gam eff  536.7083m  536.7083m    1.0081     1.1016   536.7083m    1.0307 
  gm       565.6431f  565.6431f    8.6326p  2.680e-27    1.2898p    1.9032p
  gds      662.7649u  662.7649u  125.1505f    0.       662.7649u   34.5733f
  gmb      336.9207f  336.9207f    3.2954p  5.689e-28  768.2592f  745.0808f
  cdtot     16.6326f    3.0343f    6.8342f    6.7565f   15.1224f    3.7250f
  cgtot     10.2469f   10.2469f    5.5650f    5.3280f   10.2469f    2.8395f
  cstot      3.0343f    4.2762f    1.1011f    1.1011f    3.0343f  501.1066a
  cbtot     14.8443f    2.4879f    9.5565f    9.1899f   13.3341f    5.2684f
  cgs        4.6535f    4.8198f  674.9384a  726.1975a    4.6535f  309.8869a
  cgd        4.8198f    4.6535f    1.0666f    1.0674f    4.8198f  485.1763a



 subckt                                                                    
 element  0:m1078    0:m1079    0:m1080    0:m1081    0:m1082    0:m1083   
 model    0:cmosptt  0:cmosptt  0:cmosntt  0:cmosntt  0:cmosntt  0:cmosntt 
 region       Linear     Cutoff     Cutoff     Cutoff     Linear     Cutoff
  id       -45.2525p  7.120e-21 -3.952e-27    0.         4.3529p    0.     
  ibs        0.         0.         0.         0.         0.         0.     
  ibd        0.         0.         0.         0.         0.         0.     
  vgs       -5.0000   312.9010n  162.8565n   -5.0000     2.5829    -2.4171 
  vds     -150.0445n  328.1127n -150.0445n  328.1127n    9.8765n    2.5829 
  vbs      178.0682n  328.1127n   -5.0000    -5.0000    -2.4171    -2.4171 
  vth     -869.6182m -869.6181m    1.2260     1.2260     1.0737     1.0368 
  vdsat     -2.3190   -48.4496m   53.2905m   53.2905m  736.0093m   49.9499m
  vod       -4.1304   869.6184m   -1.2260    -6.2260     1.5092    -3.4539 
  beta     105.1257u  161.4951u  420.4343u  420.4343u  414.5994u  436.9506u
  gam eff  533.5245m  533.5245m    1.3503     1.3503     1.2199     1.2199 
  gm         6.0019p  1.607e-19  1.063e-25    0.         1.9190p    0.     
  gds      301.5942u   21.6991f  2.634e-20    0.       440.7285u    0.     
  gmb        3.6880p  6.697e-20  4.581e-27    0.       235.5014f    0.     
  cdtot     20.2655f    6.5404f   10.5006f    3.7250f    5.7588f  501.1061a
  cgtot      4.8584f    3.0453f    2.0581f    2.5717f    4.8188f    2.6792f
  cstot      1.3553f  705.3938a  501.1061a  501.1061a    1.0492f  501.1061a
  cbtot     19.7267f    7.5121f   11.1238f    4.9268f    5.3106f    1.8419f
  cgs        2.0939f  700.1889a  492.7331a  383.9859a    1.7467f  352.1909a
  cgd        2.1580f  668.0211a  441.1271a  484.7560a    2.0643f  485.1624a



 subckt                                                                    
 element  0:m1084    0:m1085    0:m1086    0:m1087    0:m1088    0:m1089   
 model    0:cmosptt  0:cmosptt  0:cmosptt  0:cmosptt  0:cmosptt  0:cmosntt 
 region       Linear     Cutoff     Linear     Cutoff     Cutoff     Linear
  id         1.1463p    1.6993f  -10.0818p    0.         0.        10.0000p
  ibs        0.         0.         0.         0.         0.         0.     
  ibd        0.         0.         0.         0.         0.         0.     
  vgs       -2.4171     2.5829    -5.0000   125.0671n    5.0000     5.0000 
  vds        9.8765n    2.5829   -15.2117n   12.7826n  -12.7826n   12.7826n
  vbs        2.5829     2.5829     0.         5.0000     5.0000     0.     
  vth       -1.2887  -857.1173m -855.7622m   -1.5195    -1.5195   699.7240m
  vdsat   -915.9977m  -48.4471m   -2.3271   -57.5248m  -57.5248m    1.4215 
  vod       -1.1284     3.4400    -4.1442     1.5195     6.5195     4.3003 
  beta     119.8221u  162.1591u  228.3604u  124.2790u  124.2790u  388.6356u
  gam eff  511.3097m  533.5245m  536.7083m  497.8250m  497.8250m    1.0307 
  gm       790.7490f   38.3575f    1.2898p    0.         0.       684.7042f
  gds      116.0612u  513.1425a  662.7649u  1.260e-23    0.       782.3150u
  gmb      130.8682f   15.6945f  768.2592f    0.         0.       581.3559f
  cdtot      5.1371f  705.3938a   15.1224f    3.8130f    3.4528f    7.4570f
  cgtot      4.8586f    3.0328f   10.2469f    2.2439f    2.8946f    4.8182f
  cstot      1.7572f  705.3938a    3.0343f  705.3938a  705.3938a    1.1362f
  cbtot      4.7715f    1.6665f   13.3341f    3.9514f    4.2609f    7.4846f
  cgs        2.1256f  700.2438a    4.6535f  702.3300a  684.2357a    1.6775f
  cgd        2.1332f  666.0413a    4.8198f  697.8518a  696.7981a    2.0893f



 subckt                                                                    
 element  0:m1090    0:m1091    0:m1092    0:m1093    0:m1094    0:m1095   
 model    0:cmosntt  0:cmosntt  0:cmosntt  0:cmosntt  0:cmosntt  0:cmosntt 
 region       Cutoff     Cutoff     Linear     Linear     Linear     Linear
  id      -6.238e-21   81.7997f    8.7508p    8.7508p   25.8136p   25.8136p
  ibs        0.         0.         0.         0.         0.         0.     
  ibd        0.         0.         0.         0.         0.         0.     
  vgs      112.2845n  125.0671n    5.0000     5.0000     5.0000     5.0000 
  vds      -12.7826n    5.0000    11.1858n   11.1858n   32.9965n   32.9965n
  vbs      -12.7826n    0.         0.       -11.1858n    0.       -32.9965n
  vth      699.7240m  637.0145m  699.7240m  699.7240m  699.7240m  699.7240m
  vdsat     42.2430m   42.2390m    1.4215     1.4215     1.4215     1.4215 
  vod     -699.7239m -637.0143m    4.3003     4.3003     4.3003     4.3003 
  beta     462.4266u  463.8595u  388.6356u  388.6356u  388.6356u  388.6356u
  gam eff    1.0307     1.0307     1.0307     1.0307     1.0307     1.0307 
  gm       1.451e-19    1.9032p  599.1739f  599.1739f    1.7675p    1.7675p
  gds      487.9836f   34.5734f  782.3150u  782.3150u  782.3149u  782.3150u
  gmb      5.975e-20  745.0829f  508.7354f  508.7354f    1.5007p    1.5007p
  cdtot      5.3793f    3.7250f    5.7055f    6.8732f    5.7055f    7.4570f
  cgtot      2.8769f    2.8395f    4.8182f    4.8182f    4.8182f    4.8182f
  cstot    501.1062a  501.1066a    1.1362f    1.1362f    1.1362f    1.1362f
  cbtot      6.9611f    5.2684f    5.7330f    6.9007f    5.7330f    7.4846f
  cgs      484.7309a  309.8869a    1.6775f    1.6775f    1.6775f    1.6775f
  cgd      309.2027a  485.1763a    2.0893f    2.0893f    2.0893f    2.0893f



 subckt                                                                    
 element  0:m1096    0:m1097    0:m1098    0:m1099    0:m1100    0:m1101   
 model    0:cmosntt  0:cmosntt  0:cmosntt  0:cmosntt  0:cmosntt  0:cmosntt 
 region       Cutoff     Linear     Cutoff     Linear     Cutoff     Cutoff
  id      -3.220e-20 -9.820e-20   81.7996f    5.0818p   81.7995f  -11.8209p
  ibs        0.         0.         0.         0.         0.         0.     
  ibd        0.         0.         0.         0.         0.         0.     
  vgs      -43.6213n    5.0000    65.9929n    5.0000    15.8758n   76.9565n
  vds      -65.9929n -125.5202a    5.0000     6.4958n    5.0000  -809.9830m
  vbs      -65.9929n -125.5202a    0.         0.        -6.4958n   -5.0000 
  vth      699.7240m  699.7240m  637.0145m  699.7240m  637.0145m    1.1768 
  vdsat     42.2430m    1.4215    42.2390m    1.4215    42.2390m   52.3981m
  vod     -699.7241m    4.3003  -637.0144m    4.3003  -637.0145m   -1.1768 
  beta     462.4266u  388.6356u  463.8595u  388.6356u  463.8595u  424.9742u
  gam eff    1.0307     1.0307     1.0307     1.0307     1.0307     1.3132 
  gm       7.494e-19  6.724e-21    1.9032p  347.9529f    1.9032p  316.3946p
  gds      487.9818f  782.3150u   34.5734f  782.3150u   34.5734f    5.9284p
  gmb      3.085e-19  5.709e-21  745.0819f  295.4334f  745.0810f   15.9385p
  cdtot      4.2116f    1.1362f    3.7250f    5.7055f    4.0528f    3.1393f
  cgtot      2.8769f    4.8182f    2.8395f    4.8182f    2.8395f    2.0619f
  cstot    501.1062a    1.9950f  501.1066a    1.1362f  501.1066a  501.1052a
  cbtot      5.7934f    2.0225f    5.2684f    5.7330f    5.5962f    3.7691f
  cgs      484.7309a    2.0893f  309.8869a    1.6775f  309.8869a  492.9768a
  cgd      309.2027a    1.6775f  485.1763a    2.0893f  485.1763a  437.9113a



 subckt                                                                    
 element  0:m1102    0:m1103    0:m1104    0:m1105    0:m1106    0:m1107   
 model    0:cmosntt  0:cmosntt  0:cmosntt  0:cmosptt  0:cmosptt  0:cmosptt 
 region       Cutoff     Linear     Linear     Cutoff     Cutoff     Cutoff
  id       -60.8706f   63.9209p   63.9209p   -3.3735f    0.        -7.8514f
  ibs        0.         0.         0.         0.         0.         0.     
  ibd        0.         0.         0.         0.         0.         0.     
  vgs       -4.1900     5.0000     5.0000    -6.6711n    1.2492  -394.7090n
  vds       -4.1900    81.7074n   81.7074n   -1.2492    -3.7508    -4.0183 
  vbs       -4.1900     0.       -81.7074n    0.         1.2492     0.     
  vth      647.1732m  699.7240m  699.7240m -849.7164m   -1.0743  -836.3141m
  vdsat     42.2397m    1.4215     1.4215   -48.7786m  -53.0135m  -48.7758m
  vod       -4.8372     4.3003     4.3003   849.7164m    2.3234   836.3137m
  beta     463.6339u  388.6356u  388.6356u  363.0430u  333.6194u  364.6571u
  gam eff    1.0307     1.0307     1.0307   536.7083m  525.9594m  536.7083m
  gm         1.4163p    4.3767p    4.3767p   76.1495f    0.       177.2286f
  gds       19.7438f  782.3149u  782.3149u    1.2451f    0.         2.0505f
  gmb      557.6391f    3.7161p    3.7161p   30.8302f    0.        71.0088f
  cdtot    501.1065a    5.7055f   11.7514f    7.1345f    6.5971f    5.6158f
  cgtot      2.8454f    4.8182f    4.8182f    6.1535f    6.0166f    6.1250f
  cstot    501.1061a    1.1362f    1.1362f    1.5754f    1.5754f    1.5754f
  cbtot      2.0505f    5.7330f   11.7789f    8.6660f    7.9884f    7.1233f
  cgs      485.1066a    1.6775f    1.6775f    1.4826f    1.4877f    1.4781f
  cgd      309.7882a    2.0893f    2.0893f    1.5640f    1.5622f    1.5641f



 subckt                                                                    
 element  0:m1108    0:m1109    0:m1110    0:m1111    0:m1112    0:m1113   
 model    0:cmosptt  0:cmosptt  0:cmosptt  0:cmosptt  0:cmosptt  0:cmosptt 
 region       Cutoff     Cutoff     Cutoff     Linear     Cutoff     Cutoff
  id       -11.0811p    0.         3.3735f  -10.0818p -1.438e-21 -4.135e-21
  ibs        0.         0.         0.         0.         0.         0.     
  ibd        0.         0.         0.         0.         0.         0.     
  vgs     -981.6865m    5.0000     1.2492    -5.0000   -15.2117n   14.9099n
  vds     -981.6865m    3.7508     1.2492   -15.2117n  -21.5810n  -62.0466n
  vbs        4.0183     5.0000     1.2492     0.         0.        21.5810n
  vth       -1.3981    -1.0743  -849.7164m -855.7622m -855.7622m -855.7622m
  vdsat    -57.0009m  -53.0135m  -48.7786m   -2.3271   -48.7798m  -48.7798m
  vod      416.4066m    6.0743     2.0989    -4.1442   855.7621m  855.7622m
  beta     294.7058u  333.6194u  363.0430u  228.3604u  362.3202u  362.3202u
  gam eff  510.5314m  525.9594m  536.7083m  536.7083m  536.7083m  536.7083m
  gm       295.9043p    0.        76.1495f    1.2898p  3.246e-20  9.333e-20
  gds        5.3458p    0.         1.2451f  662.7649u   66.6372f   66.6371f
  gmb       26.9079p    0.        30.8302f  768.2591f  1.332e-20  3.831e-20
  cdtot      7.2230f    7.1345f    1.5754f   15.1224f    9.4012f   13.9318f
  cgtot      4.4077f    6.0166f    6.1535f   10.2469f    6.1666f    6.1666f
  cstot      1.5754f    1.5754f    1.5754f    3.0343f    1.5754f    1.5754f
  cbtot      6.9332f    8.5258f    3.1069f   13.3341f   10.9438f   15.4744f
  cgs        1.5529f    1.5622f    1.5640f    4.6535f    1.4847f    1.4847f
  cgd        1.5692f    1.4877f    1.4826f    4.8198f    1.5639f    1.5639f



 subckt                                                                    
 element  0:m1114    0:m1115    0:m1116    0:m1117    0:m1118    0:m1119   
 model    0:cmosptt  0:cmosptt  0:cmosptt  0:cmosptt  0:cmosptt  0:cmosptt 
 region       Linear     Linear     Cutoff     Cutoff     Linear     Linear
  id        27.7127p   27.7127p   -3.3735f    0.        -4.4214p    4.4214p
  ibs        0.         0.         0.         0.         0.         0.     
  ibd        0.         0.         0.         0.         0.         0.     
  vgs       -5.0000    -5.0000   -83.6276n    1.2492    -5.0000    -5.0000 
  vds       41.8138n   41.8138n   -1.2492    -3.7508    -6.6711n    6.6711n
  vbs       83.6276n   41.8138n    0.         1.2492     0.         6.6711n
  vth     -855.7622m -855.7622m -849.7164m   -1.0743  -855.7622m -855.7622m
  vdsat     -2.3271    -2.3271   -48.7786m  -53.0135m   -2.3271    -2.3271 
  vod       -4.1442    -4.1442   849.7163m    2.3234    -4.1442    -4.1442 
  beta     228.3604u  228.3604u  363.0430u  333.6194u  228.3604u  228.3604u
  gam eff  536.7083m  536.7083m  536.7083m  525.9594m  536.7083m  536.7083m
  gm         3.5454p    3.5454p   76.1496f    0.       565.6431f  565.6431f
  gds      662.7649u  662.7649u    1.2451f    0.       662.7649u  662.7649u
  gmb        2.1118p    2.1118p   30.8303f    0.       336.9207f  336.9207f
  cdtot     10.8601f    3.0343f    7.1345f    9.3444f   16.6326f    3.0343f
  cgtot     10.2469f   10.2469f    6.1535f    6.0166f   10.2469f   10.2469f
  cstot      4.2762f    4.2762f    1.5754f    1.5754f    3.0343f    4.2762f
  cbtot     10.3136f    2.4879f    8.6660f   10.7358f   14.8443f    2.4879f
  cgs        4.8198f    4.8198f    1.4826f    1.4877f    4.6535f    4.8198f
  cgd        4.6535f    4.6535f    1.5640f    1.5622f    4.8198f    4.6535f



 subckt                                                                    
 element  0:m1120    0:m1121    0:m1122    0:m1123    0:m1124    0:m1125   
 model    0:cmosntt  0:cmosntt  0:cmosptt  0:cmosntt  0:cmosptt  0:cmosptt 
 region       Cutoff     Cutoff     Linear     Cutoff     Cutoff     Cutoff
  id       371.0568f  1.046e-28  -10.0818p   81.7995f    0.         3.2490f
  ibs        0.         0.         0.         0.         0.         0.     
  ibd        0.         0.         0.         0.         0.         0.     
  vgs        0.        -1.1572    -5.0000     0.      -163.4148n    5.0000 
  vds        1.1572     3.8428   -15.2117n    5.0000    64.1303n    5.0000 
  vbs        0.        -1.1572     0.         0.         5.0000     5.0000 
  vth      602.6323m  792.3957m -855.7622m  637.0145m   -1.5195  -845.4188m
  vdsat     43.6805m   48.1266m   -2.3271    42.2390m  -57.5248m  -48.4447m
  vod     -602.6323m   -1.9496    -4.1442  -637.0145m    1.5195     5.8454 
  beta       1.0209m    1.0021m  228.3604u  463.8595u  124.2790u  162.7861u
  gam eff    1.0081     1.1016   536.7083m    1.0307   497.8250m  533.5245m
  gm         8.6326p  2.680e-27    1.2898p    1.9032p    0.        73.3396f
  gds      125.1505f    0.       662.7649u   34.5733f  1.260e-23  786.1150a
  gmb        3.2954p  5.689e-28  768.2592f  745.0808f    0.        29.7238f
  cdtot      6.8342f    6.7565f   15.1224f    3.7250f    9.3077f    6.5404f
  cgtot      5.5650f    5.3280f   10.2469f    2.8395f    2.2439f    3.0214f
  cstot      1.1011f    1.1011f    3.0343f  501.1066a  705.3938a  705.3938a
  cbtot      9.5565f    9.1899f   13.3341f    5.2684f    9.4461f    7.4919f
  cgs      674.9384a  726.1975a    4.6535f  309.8869a  702.3300a  700.2936a
  cgd        1.0666f    1.0674f    4.8198f  485.1763a  697.8518a  664.2219a



 subckt                                                                    
 element  0:m1126    0:m1127    0:m1128    0:m1129    0:m1130    0:m1131   
 model    0:cmosntt  0:cmosntt  0:cmosntt  0:cmosntt  0:cmosptt  0:cmosptt 
 region       Linear     Cutoff     Cutoff     Cutoff     Linear     Cutoff
  id        50.1701p   81.7989f -1.754e-27  -81.7989f  -20.0850p   -3.2490f
  ibs        0.         0.         0.         0.         0.         0.     
  ibd        0.         0.         0.         0.         0.         0.     
  vgs        5.0000  -227.5451n  312.9010n   -5.0000    -5.0000   379.4972n
  vds       64.1303n    5.0000   -66.5963n   -5.0000   -66.5963n   -5.0000 
  vbs     -163.4148n -227.5451n   -5.0000    -5.0000   328.1127n  394.7090n
  vth      699.7241m  637.0145m    1.2260   637.0145m -869.6182m -845.4189m
  vdsat      1.4215    42.2390m   53.2905m   42.2390m   -2.3190   -48.4447m
  vod        4.3003  -637.0148m   -1.2260    -5.6370    -4.1304   845.4193m
  beta     388.6356u  463.8595u  420.4343u  463.8595u  105.1257u  162.7861u
  gam eff    1.0307     1.0307     1.3503     1.0307   533.5245m  533.5245m
  gm         3.4352p    1.9032p  4.716e-26    1.9032p    2.6639p   73.3387f
  gds      782.3149u   34.5731f  2.634e-20   34.5731f  301.5942u  786.1051a
  gmb        2.9167p  745.0751f  2.033e-27  745.0750f    1.6369p   29.7234f
  cdtot     17.2134f    3.7250f    4.0528f  501.1066a    8.5955f  705.3938a
  cgtot      4.8182f    2.8395f    2.0581f    2.8395f    4.8584f    3.0214f
  cstot      1.1362f  501.1066a  501.1061a  501.1061a    1.3553f  705.3938a
  cbtot     17.2410f    5.2684f    4.6760f    2.0445f    8.0567f    1.6569f
  cgs        1.6775f  309.8869a  492.7331a  485.1763a    2.0939f  664.2219a
  cgd        2.0893f  485.1763a  441.1271a  309.8869a    2.1580f  700.2936a



 subckt                                                                    
 element  0:m1132    0:m1133    0:m1134    0:m1135    0:m1136    0:m1137   
 model    0:cmosptt  0:cmosptt  0:cmosptt  0:cmosntt  0:cmosntt  0:cmosntt 
 region       Linear     Cutoff     Cutoff     Linear     Cutoff     Cutoff
  id       -10.0818p    0.         0.        10.0000p -6.238e-21   81.7997f
  ibs        0.         0.         0.         0.         0.         0.     
  ibd        0.         0.         0.         0.         0.         0.     
  vgs       -5.0000   125.0671n    5.0000     5.0000   112.2845n  125.0671n
  vds      -15.2117n   12.7826n  -12.7826n   12.7826n  -12.7826n    5.0000 
  vbs        0.         5.0000     5.0000     0.       -12.7826n    0.     
  vth     -855.7622m   -1.5195    -1.5195   699.7240m  699.7240m  637.0145m
  vdsat     -2.3271   -57.5248m  -57.5248m    1.4215    42.2430m   42.2390m
  vod       -4.1442     1.5195     6.5195     4.3003  -699.7239m -637.0143m
  beta     228.3604u  124.2790u  124.2790u  388.6356u  462.4266u  463.8595u
  gam eff  536.7083m  497.8250m  497.8250m    1.0307     1.0307     1.0307 
  gm         1.2898p    0.         0.       684.7042f  1.451e-19    1.9032p
  gds      662.7649u  1.260e-23    0.       782.3150u  487.9836f   34.5734f
  gmb      768.2592f    0.         0.       581.3559f  5.975e-20  745.0829f
  cdtot     15.1224f    3.8130f    3.4528f    7.4570f    5.3793f    3.7250f
  cgtot     10.2469f    2.2439f    2.8946f    4.8182f    2.8769f    2.8395f
  cstot      3.0343f  705.3938a  705.3938a    1.1362f  501.1062a  501.1066a
  cbtot     13.3341f    3.9514f    4.2609f    7.4846f    6.9611f    5.2684f
  cgs        4.6535f  702.3300a  684.2357a    1.6775f  484.7309a  309.8869a
  cgd        4.8198f  697.8518a  696.7981a    2.0893f  309.2027a  485.1763a



 subckt                                                                    
 element  0:m1138    0:m1139    0:m1140    0:m1141    0:m1142    0:m1143   
 model    0:cmosntt  0:cmosntt  0:cmosntt  0:cmosntt  0:cmosntt  0:cmosntt 
 region       Linear     Linear     Cutoff     Cutoff     Cutoff     Cutoff
[...]
  vds        3.7561  -809.9830m   -4.1900    30.3597n   30.3597n   -1.2492 
  vbs       -1.2439    -5.0000    -4.1900     0.       -30.3597n    0.     
  vth      896.2738m    1.1768   647.1732m  699.7240m  699.7240m -849.7164m
  vdsat     47.5097m   52.3981m   42.2397m    1.4215     1.4215   -48.7786m
  vod       -2.1401    -1.1768    -4.8372     4.3003     4.3003   849.7164m
  beta     447.5141u  424.9742u  463.6339u  388.6356u  388.6356u  363.0430u
  gam eff    1.1430     1.3132     1.0307     1.0307     1.0307   536.7083m
  gm         0.       316.3946p    1.4163p    1.6262p    1.6262p   76.1495f
  gds        0.         5.9284p   19.7438f  782.3150u  782.3150u    1.2451f
  gmb        0.        15.9385p  557.6378f    1.3808p    1.3808p   30.8302f
  cdtot      4.0528f    3.1393f  501.1065a    5.7055f   11.7514f    7.1345f
  cgtot      2.7471f    2.0619f    2.8454f    4.8182f    4.8182f    6.1535f
  cstot    501.1061a  501.1052a  501.1061a    1.1362f    1.1362f    1.5754f
  cbtot      5.4789f    3.7691f    2.0505f    5.7330f   11.7789f    8.6660f
  cgs      334.6526a  492.9768a  485.1066a    1.6775f    1.6775f    1.4826f
  cgd      485.2295a  437.9113a  309.7882a    2.0893f    2.0893f    1.5640f



 subckt                                                                    
 element  0:m1858    0:m1859    0:m1860    0:m1861    0:m1862    0:m1863   
 model    0:cmosptt  0:cmosptt  0:cmosptt  0:cmosptt  0:cmosptt  0:cmosptt 
 region       Cutoff     Linear     Linear     Cutoff     Linear     Cutoff
  id         0.       -26.3870p  -26.3870p  5.306e-21  5.887e-19  -10.0468f
  ibs        0.         0.         0.         0.         0.         0.     
  ibd        0.         0.         0.         0.         0.         0.     
  vgs        1.2492    -5.0000    -5.0000    72.9561n   -5.0000   -79.6272n
  vds       -3.7508   -39.8136n  -39.8136n   79.6272n  888.1784a   -5.0000 
  vbs        1.2492     0.        39.8136n   79.6272n  888.1784a    0.     
  vth       -1.0743  -855.7622m -855.7622m -855.7622m -855.7622m -831.5629m
  vdsat    -53.0135m   -2.3271    -2.3271   -48.7798m   -2.3271   -48.7748m
  vod        2.3234    -4.1442    -4.1442   855.7622m   -4.1442   831.5628m
  beta     333.6194u  228.3604u  228.3604u  362.3202u  228.3604u  365.2332u
  gam eff  525.9594m  536.7083m  536.7083m  536.7083m  536.7083m  536.7083m
  gm         0.         3.3758p    3.3758p  1.198e-19  7.531e-20  226.7840f
  gds        0.       662.7649u  662.7649u   66.6371f  662.7649u    2.4318f
  gmb        0.         2.0108p    2.0108p  4.916e-20  4.486e-20   90.4979f
  cdtot      6.5971f   12.1019f   16.6326f    9.4012f    3.0343f    6.5971f
  cgtot      6.0166f   10.2469f   10.2469f    6.1666f   10.2469f    6.1152f
  cstot      1.5754f    3.0343f    3.0343f    1.5754f    4.2762f    1.5754f
  cbtot      7.9884f   10.3136f   14.8443f   10.9438f    2.4879f    8.0963f
  cgs        1.4877f    4.6535f    4.6535f    1.5639f    4.8198f    1.4765f
  cgd        1.5622f    4.8198f    4.8198f    1.4847f    4.6535f    1.5641f



 subckt                                                                    
 element  0:m1864    0:m1865    0:m1866    0:m1867    0:m1868    0:m1869   
 model    0:cmosptt  0:cmosptt  0:cmosptt  0:cmosptt  0:cmosptt  0:cmosptt 
 region       Linear     Cutoff     Linear     Linear     Cutoff     Cutoff
  id      -5.887e-19 -5.306e-21   26.3870p   26.3870p   -3.3735f    0.     
  ibs        0.         0.         0.         0.         0.         0.     
  ibd        0.         0.         0.         0.         0.         0.     
  vgs       -5.0000    -6.6711n   -5.0000    -5.0000   -79.6272n    1.2492 
  vds     -888.1784a  -79.6272n   39.8136n   39.8136n   -1.2492    -3.7508 
  vbs        0.       888.1784a   79.6272n   39.8136n    0.         1.2492 
  vth     -855.7622m -855.7622m -855.7622m -855.7622m -849.7164m   -1.0743 
  vdsat     -2.3271   -48.7798m   -2.3271    -2.3271   -48.7786m  -53.0135m
  vod       -4.1442   855.7621m   -4.1442    -4.1442   849.7163m    2.3234 
  beta     228.3604u  362.3202u  228.3604u  228.3604u  363.0430u  333.6194u
  gam eff  536.7083m  536.7083m  536.7083m  536.7083m  536.7083m  525.9594m
  gm       7.531e-20  1.198e-19    3.3758p    3.3758p   76.1496f    0.     
  gds      662.7649u   66.6371f  662.7649u  662.7649u    1.2451f    0.     
  gmb      4.486e-20  4.916e-20    2.0108p    2.0108p   30.8303f    0.     
  cdtot     12.1019f   13.9318f   10.8601f    3.0343f    7.1345f    9.3444f
  cgtot     10.2469f    6.1666f   10.2469f   10.2469f    6.1535f    6.0166f
  cstot      3.0343f    1.5754f    4.2762f    4.2762f    1.5754f    1.5754f
  cbtot     10.3136f   15.4744f   10.3136f    2.4879f    8.6660f   10.7358f
  cgs        4.6535f    1.4847f    4.8198f    4.8198f    1.4826f    1.4877f
  cgd        4.8198f    1.5639f    4.6535f    4.6535f    1.5640f    1.5622f



 subckt                                                                    
 element  0:m1870    0:m1871    0:m1872    0:m1873    0:m1874    0:m1875   
 model    0:cmosptt  0:cmosptt  0:cmosntt  0:cmosntt  0:cmosptt  0:cmosntt 
 region       Linear     Linear     Cutoff     Cutoff     Linear     Cutoff
  id        -4.4214p    4.4214p  371.0568f  1.046e-28  -10.0818p   81.7995f
  ibs        0.         0.         0.         0.         0.         0.     
  ibd        0.         0.         0.         0.         0.         0.     
  vgs       -5.0000    -5.0000     0.        -1.1572    -5.0000     0.     
  vds       -6.6711n    6.6711n    1.1572     3.8428   -15.2117n    5.0000 
  vbs        0.         6.6711n    0.        -1.1572     0.         0.     
  vth     -855.7622m -855.7622m  602.6323m  792.3957m -855.7622m  637.0145m
  vdsat     -2.3271    -2.3271    43.6805m   48.1266m   -2.3271    42.2390m
  vod       -4.1442    -4.1442  -602.6323m   -1.9496    -4.1442  -637.0145m
  beta     228.3604u  228.3604u    1.0209m    1.0021m  228.3604u  463.8595u
  gam eff  536.7083m  536.7083m    1.0081     1.1016   536.7083m    1.0307 
  gm       565.6431f  565.6431f    8.6326p  2.680e-27    1.2898p    1.9032p
  gds      662.7649u  662.7649u  125.1505f    0.       662.7649u   34.5733f
  gmb      336.9207f  336.9207f    3.2954p  5.689e-28  768.2592f  745.0808f
  cdtot     16.6326f    3.0343f    6.8342f    6.7565f   15.1224f    3.7250f
  cgtot     10.2469f   10.2469f    5.5650f    5.3280f   10.2469f    2.8395f
  cstot      3.0343f    4.2762f    1.1011f    1.1011f    3.0343f  501.1066a
  cbtot     14.8443f    2.4879f    9.5565f    9.1899f   13.3341f    5.2684f
  cgs        4.6535f    4.8198f  674.9384a  726.1975a    4.6535f  309.8869a
  cgd        4.8198f    4.6535f    1.0666f    1.0674f    4.8198f  485.1763a



 subckt                                                                    
 element  0:m1876    0:m1877    0:m1878    0:m1879    0:m1880    0:m1881   
 model    0:cmosptt  0:cmosptt  0:cmosntt  0:cmosntt  0:cmosntt  0:cmosntt 
 region       Cutoff     Cutoff     Linear     Cutoff     Linear     Cutoff
  id         0.         0.        10.0000p -3.587e-20   10.0000p -2.184e-20
  ibs        0.         0.         0.         0.         0.         0.     
  ibd        0.         0.         0.         0.         0.         0.     
  vgs      -60.7194n    5.0000     5.0000   -73.5020n    5.0000   -44.7519n
  vds       12.7826n  -73.5020n   12.7826n  -73.5020n   12.7826n  -44.7519n
  vbs        5.0000     5.0000   -60.7194n  -73.5020n  -31.9693n  -44.7519n
  vth       -1.5195    -1.5195   699.7240m  699.7240m  699.7240m  699.7240m
  vdsat    -57.5248m  -57.5248m    1.4215    42.2430m    1.4215    42.2430m
  vod        1.5195     6.5195     4.3003  -699.7241m    4.3003  -699.7241m
  beta     124.2790u  124.2790u  388.6356u  462.4266u  388.6356u  462.4266u
  gam eff  497.8250m  497.8250m    1.0307     1.0307     1.0307     1.0307 
  gm         0.         0.       684.7042f  8.346e-19  684.7042f  5.082e-19
  gds      1.260e-23    0.       782.3150u  487.9815f  782.3150u  487.9818f
  gmb        0.         0.       581.3558f  3.436e-19  581.3558f  2.092e-19
  cdtot      3.8130f  705.3938a    7.4570f  501.1061a    7.4570f  501.1061a
  cgtot      2.2439f    2.8946f    4.8182f    2.8769f    4.8182f    2.8769f
  cstot    705.3938a  705.3938a    1.1362f  501.1062a    1.1362f  501.1062a
  cbtot      3.9514f    1.5136f    7.4846f    2.0829f    7.4846f    2.0829f
  cgs      702.3300a  684.2357a    1.6775f  484.7309a    1.6775f  484.7309a
  cgd      697.8518a  696.7981a    2.0893f  309.2027a    2.0893f  309.2027a



 subckt                                                                    
 element  0:m1882    0:m1883    0:m1884    0:m1885    0:m1886    0:m1887   
 model    0:cmosptt  0:cmosptt  0:cmosptt  0:cmosptt  0:cmosptt  0:cmosptt 
 region       Cutoff     Cutoff     Linear     Linear     Linear     Linear
  id         0.         0.        -5.1228p    5.1228p  -10.2456p   -7.6842p
  ibs        0.         0.         0.         0.         0.         0.     
  ibd        0.         0.         0.         0.         0.         0.     
  vgs      -31.9693n    5.0000    -5.0000    -5.0000    -5.0000    -5.0000 
  vds       12.7826n  -44.7519n   -7.7295n    7.7295n  -15.4589n  -11.5942n
  vbs        5.0000     5.0000     0.         7.7295n    7.7295n    0.     
  vth       -1.5195    -1.5195  -855.7622m -855.7622m -855.7622m -855.7622m
  vdsat    -57.5248m  -57.5248m   -2.3271    -2.3271    -2.3271    -2.3271 
  vod        1.5195     6.5195    -4.1442    -4.1442    -4.1442    -4.1442 
  beta     124.2790u  124.2790u  228.3604u  228.3604u  228.3604u  228.3604u
  gam eff  497.8250m  497.8250m  536.7083m  536.7083m  536.7083m  536.7083m
  gm         0.         0.       655.3800f  655.3800f    1.3108p  983.0701f
  gds      1.260e-23    0.       662.7649u  662.7649u  662.7649u  662.7649u
  gmb        0.         0.       390.3718f  390.3718f  780.7437f  585.5577f
  cdtot      3.8130f  705.3938a   27.4788f    3.0343f   25.9686f   12.1019f
  cgtot      2.2439f    2.8946f   10.2469f   10.2469f   10.2469f   10.2469f
  cstot    705.3938a  705.3938a    3.0343f    4.2762f    3.0343f    3.0343f
  cbtot      3.9514f    1.5136f   25.6905f    2.4879f   24.1803f   10.3136f
  cgs      702.3300a  684.2357a    4.6535f    4.8198f    4.6535f    4.6535f
  cgd      697.8518a  696.7981a    4.8198f    4.6535f    4.8198f    4.8198f



 subckt                                                                    
 element  0:m1888    0:m1889    0:m1890    0:m1891    0:m1892    0:m1893   
 model    0:cmosptt  0:cmosptt  0:cmosptt  0:cmosptt  0:cmosptt  0:cmosptt 
 region       Linear     Linear     Linear     Linear     Cutoff     Linear
  id        -7.6842p  5.887e-19 -5.887e-19  5.887e-19 -1.296e-20  -42.9637p
  ibs        0.         0.         0.         0.         0.         0.     
  ibd        0.         0.         0.         0.         0.         0.     
  vgs       -5.0000    -5.0000    -5.0000    -5.0000   -23.1884n   -5.0000 
  vds      -11.5942n  888.1784a -888.1784a  888.1784a -194.4748n  -64.8249n
  vbs       11.5942n    0.      -888.1784a    0.      -888.1784a    0.     
  vth     -855.7622m -855.7622m -855.7622m -855.7622m -855.7622m -855.7622m
  vdsat     -2.3271    -2.3271    -2.3271    -2.3271   -48.7798m   -2.3271 
  vod       -4.1442    -4.1442    -4.1442    -4.1442   855.7621m   -4.1442 
  beta     228.3604u  228.3604u  228.3604u  228.3604u  362.3202u  228.3604u
  gam eff  536.7083m  536.7083m  536.7083m  536.7083m  536.7083m  536.7083m
  gm       983.0701f  7.531e-20  7.531e-20  7.531e-20  2.925e-19    5.4965p
  gds      662.7649u  662.7649u  662.7649u  662.7649u   66.6370f  662.7649u
  gmb      585.5577f  4.486e-20  4.486e-20  4.486e-20  1.201e-19    3.2739p
  cdtot      4.2762f   37.0831f    4.2762f    3.0343f   23.2678f   12.1019f
  cgtot     10.2469f   10.2469f   10.2469f   10.2469f    6.1666f   10.2469f
  cstot      3.0343f    4.2762f    3.0343f    4.2762f    1.5754f    3.0343f
  cbtot      2.4879f   36.5367f    2.4879f    2.4879f   24.8104f   10.3136f
  cgs        4.6535f    4.8198f    4.6535f    4.8198f    1.4847f    4.6535f
  cgd        4.8198f    4.6535f    4.8198f    4.6535f    1.5639f    4.8198f



 subckt                                                                    
 element  0:m1894    0:m1895    0:m1896    0:m1897    0:m1898    0:m1899   
 model    0:cmosptt  0:cmosptt  0:cmosptt  0:cmosptt  0:cmosntt  0:cmosntt 
 region       Linear     Linear     Cutoff     Cutoff     Cutoff     Cutoff
  id       -42.9637p  -42.9637p  -10.0468f  -10.0468f   21.1923f  -21.1922f
  ibs        0.         0.         0.         0.         0.         0.     
  ibd        0.         0.         0.         0.         0.         0.     
  vgs       -5.0000    -5.0000  -194.4748n  -23.1884n   73.5020n -826.2692m
  vds      -64.8249n  -64.8249n   -5.0000    -5.0000   826.2692m -826.2692m
  vbs       64.8249n  129.6499n    0.         0.         0.      -826.2692m
  vth     -855.7622m -855.7622m -831.5629m -831.5629m  689.3610m  689.3610m
  vdsat     -2.3271    -2.3271   -48.7748m  -48.7748m   42.2423m   42.2423m
  vod       -4.1442    -4.1442   831.5627m  831.5628m -689.3609m   -1.5156 
  beta     228.3604u  228.3604u  365.2332u  365.2332u  462.6700u  462.6700u
  gam eff  536.7083m  536.7083m  536.7083m  536.7083m    1.0307     1.0307 
  gm         5.4965p    5.4965p  226.7846f  226.7837f  493.1289f  493.1284f
  gds      662.7649u  662.7649u    2.4318f    2.4318f    7.8486f    7.8486f
  gmb        3.2739p    3.2739p   90.4982f   90.4978f  198.8545f  198.8543f
  cdtot     12.1019f    4.2762f    1.5754f    6.5971f    9.3659f  501.1062a
  cgtot     10.2469f   10.2469f    6.1152f    6.1152f    2.8705f    2.8705f
  cstot      3.0343f    3.0343f    1.5754f    1.5754f  501.1062a  501.1061a
  cbtot     10.3136f    2.4879f    3.0746f    8.0963f   10.9412f    2.0763f
  cgs        4.6535f    4.6535f    1.4765f    1.4765f  309.3287a  484.8069a
  cgd        4.8198f    4.8198f    1.5641f    1.5641f  484.8069a  309.3287a



 subckt                                                                    
 element  0:m1900    0:m1901    0:m1902    0:m1903    0:m1904    0:m1905   
 model    0:cmosntt  0:cmosntt  0:cmosntt  0:cmosntt  0:cmosntt  0:cmosntt 
 region       Cutoff     Cutoff     Cutoff     Cutoff     Cutoff     Cutoff
  id       1.725e-25   24.5061f    0.        60.2686f  -60.2686f   60.2687f
  ibs        0.         0.         0.         0.         0.         0.     
  ibd        0.         0.         0.         0.         0.         0.     
  vgs     -826.2692m   25.6739n   -1.2439     0.        -4.1593    73.5020n
  vds        4.1737     1.2439     3.7561     4.1593    -4.1593     4.1593 
  vbs     -826.2692m    0.        -1.2439     0.        -4.1593     0.     
  vth      828.1898m  684.1235m  896.2738m  647.5585m  647.5585m  647.5585m
  vdsat     46.2683m   42.2420m   47.5097m   42.2397m   42.2397m   42.2397m
  vod       -1.6545  -684.1234m   -2.1401  -647.5585m   -4.8069  -647.5584m
  beta     452.1628u  462.7920u  447.5141u  463.6253u  463.6253u  463.6253u
  gam eff    1.1104     1.0307     1.1430     1.0307     1.0307     1.0307 
  gm       4.350e-24  570.2363f    0.         1.4023p    1.4023p    1.4023p
  gds      6.256e-26    8.1345f    0.        19.4365f   19.4365f   19.4365f
  gmb      1.125e-24  229.2591f    0.       552.2450f  552.2453f  552.2459f
  cdtot      6.9489f    3.6102f  501.1061a   10.8229f  501.1065a  501.1061a
  cgtot      2.7753f    2.8673f    2.7471f    2.8456f    2.8456f    2.8456f
  cstot    501.1061a  501.1063a  501.1061a  501.1065a  501.1061a  501.1065a
  cbtot      8.4102f    5.1821f    1.9272f   12.3725f    2.0507f    2.0507f
  cgs      327.6910a  309.3903a  334.6526a  309.7844a  485.1040a  309.7844a
  cgd      485.2290a  484.8451a  485.2295a  485.1040a  309.7844a  485.1040a



 subckt                                                                    
 element  0:m1906    0:m1907    0:m1908    0:m1909    0:m1910    0:m1911   
 model    0:cmosntt  0:cmosntt  0:cmosntt  0:cmosntt  0:cmosntt  0:cmosntt 
 region       Cutoff     Cutoff     Cutoff     Cutoff     Linear     Linear
  id        28.4552p   16.9968f  5.038e-19    0.        29.8797p   10.0100p
  ibs        0.         0.         0.         0.         0.         0.     
  ibd        0.         0.         0.         0.         0.         0.     
  vgs      840.7021m    0.      -328.8009m   -1.3322     5.0000     5.0000 
  vds      840.7019m  328.8009m    1.0034     3.6678    38.1939n   12.7954n
  vbs       -4.1593     0.      -328.8009m   -1.3322     0.         0.     
  vth        1.1748   695.6002m  772.2857m  909.1236m  699.7240m  699.7240m
  vdsat     52.3632m   42.2427m   44.2363m   47.7377m    1.4215     1.4215 
  vod     -334.0660m -695.6002m   -1.1011    -2.2413     4.3003     4.3003 
  beta     425.1555u  462.5237u  457.5325u  446.6044u  388.6356u  388.6356u
  gam eff    1.3118     1.0307     1.0658     1.1494     1.0307     1.0307 
  gm       760.4768p  395.5062f   12.2335a    0.         2.0459p  685.3921f
  gds       14.0972p    9.9709f  1.855e-19    0.       782.3149u  782.3150u
  gmb       38.5324p  160.0835f    4.1147a    0.         1.7371p  581.9399f
  cdtot      6.9489f    3.9792f    3.5856f  501.1061a    1.9950f    6.8732f
  cgtot      2.0622f    2.8743f    2.8384f    2.7414f    4.8182f    4.8182f
  cstot    501.2557a  501.1062a  501.1061a  501.1061a    1.1362f    1.1362f
  cbtot      7.5791f    5.5584f    5.1201f    1.9202f    2.0225f    6.9007f
  cgs      437.9440a  309.2535a  317.8259a  336.0588a    1.6775f    1.6775f
  cgd      492.9837a  484.7612a  484.8919a  485.2278a    2.0893f    2.0893f



 ******
 *********************************************************

 ****** transient analysis tnom=  25.000 temp=  70.000 ******
 critical_path_delay=   2.3244n  targ=   2.4244n   trig= 100.0000p

          ***** job concluded
1****** HSPICE -- K-2015.06 linux64 (May 25 2015) ******                        
 ******  
 *********************************************************

 ****** job statistics summary tnom=  25.000 temp=  70.000 ******
  
  
 ******  Machine Information  ******
 CPU:
 model name	: Intel(R) Xeon(R) CPU E5-4617 0 @ 2.90GHz
 cpu MHz	: 2900.000
  
 OS:
 Linux version 2.6.32-696.30.1.el6.x86_64 (mockbuild@x86-033.build.eng.bos.redhat.com) (gcc version 4.4.7 20120313 (Red Hat 4.4.7-18) (GCC) ) #1 SMP Fri May 18 11:50:44 EDT 2018


  ******  HSPICE Threads Information  ******

  Command Line Threads Count :     1
  Available CPU Count        :    12
  Actual Threads Count       :     1


  ****** Statistics of Ignored Elements ******
  Capacitors      :       1

  ******  Circuit Statistics  ******
  # nodes       =     501 # elements   =    1261
  # resistors   =       0 # capacitors =     329 # inductors   =       0
  # mutual_inds =       0 # vccs       =       0 # vcvs        =       0
  # cccs        =       0 # ccvs       =       0 # volt_srcs   =      20
  # curr_srcs   =       0 # diodes     =       0 # bjts        =       0
  # jfets       =       0 # mosfets    =     912 # U elements  =       0
  # T elements  =       0 # W elements =       0 # B elements  =       0
  # S elements  =       0 # P elements =       0 # va device   =       0
  # vector_srcs =       0 # N elements =       0


  ******  Runtime Statistics (seconds)  ******

  analysis           time    # points   tot. iter  conv.iter
  op point           0.34           1          97
  transient          4.05        4001        3147        1034 rev=        28
  readin             0.10
  errchk             0.03
  setup              0.01
  output             0.00


           peak memory used        209.28 megabytes
           total cpu time            4.53 seconds
           total elapsed time        4.46 seconds
           job started at     05:59:25 12/07/2018
           job ended   at     05:59:30 12/07/2018


 lic: Release hspice token(s) 
 lic: total license checkout elapse time:        0.26(s)
