Using: /programs/synopsys/hspice_vK-2015.06/hspice/linux64/hspice bpm_custom.sp
 ****** HSPICE -- K-2015.06 linux64 (May 25 2015) ******                        
  Copyright (c) 1986 - 2018 by Synopsys, Inc. All Rights Reserved.              
  This software and the associated documentation are proprietary
  to Synopsys, Inc. This software may only be used in accordance
  with the terms and conditions of a written license agreement with
  Synopsys, Inc. All other use, reproduction, or distribution of
  this software is strictly prohibited.
  Input File: bpm_custom.sp                                                     
  Command line options: /programs/synopsys/hspice_vK-2015.06/hspice/linux64/hspice bpm_custom.sp
 lic:  
 lic: FLEXlm: v11.2.1 
 lic: USER:   dshadoa              HOSTNAME: shire.ecen.okstate.edu 
 lic: HOSTID: "2c44fd80a220"       PID:      19518 
 lic: Using FLEXlm license file: 
 lic: 27020@avatar.ecen.okstate.edu 
 lic: Checkout 1 hspice 
 lic: License/Maintenance for hspice will expire on 27-jan-2019/2017.12 
 lic: 1(in_use)/50(total) FLOATING license(s) on SERVER 27020@avatar.ecen.okstate.edu 
 lic:   
 Init: read install configuration file: /programs/synopsys/hspice_vK-2015.06/hspice/meta.cfg
1****** HSPICE -- K-2015.06 linux64 (May 25 2015) ******                        
 ******  
 *********************************************************

 ****** mos   model parameters tnom=  25.000 temp=  25.000 ******
 ***************************************************************************
 ***        model parameters  model name:   0:cmosntt  model type:nmos   ***
 ***************************************************************************

   *** general parameters ***
    deriv=   0.           

   ***  level 49  model parameters  ***

      hspver=    2006.03               level=         49         
     version=        3.1            paramchk=          0         
      apwarn=          1                lite=          0         
      vgslim=          0             binUnit=          1         
      capMod=          2               xpart=        0.5         
      mobMod=          1              nqsMod=          0         
      stiMod=          0                 elm=          5         
    sfvtflag=          0                 tox=   1.39e-08 meter   
          xj=    1.5e-07 meter       binflag=          0         
        lmin=          0 meter          lmax=          0 meter   
        wmin=          0 meter          wmax=          0 meter   
        lref=          0 meter          wref=          0 meter   
        lint=3.59761e-08 meter          wint=2.47235e-07 meter   
       lmult=          1               wmult=          1         
          ll=          0                 lln=          1         
          lw=          0                 lwn=          1         
         lwl=          0                  wl=          0         
         wln=          1                  ww=          0         
         wwn=          1                 wwl=          0         
         dwg=-1.28716e-08 m/V             dwb=5.30659e-08 m/V^1/2 
          xl=          0                  xw=          0         
          a0=   0.610354                 ags=   0.119461 V^-1    
          b0=2.67476e-06 meter            b1=      5e-06 meter   
        keta=-0.00264068 V^-1           voff=          0 V       
       ngate=          0 cm^-3           vbx=          0 V       
         vbm=         -3 V                xt=   1.55e-07 meter   
        vth0=   0.669606 V               nch=    1.7e+17 cm^-3   
        nsub=      6e+16 cm^-3           nlx=      1e-09 meter   
      gamma1=          0 V^-1/2       gamma2=          0 V^-1/2  
          k1=   0.835161 V^1/2            k2= -0.0839158         
          k3=    23.1024                 k3b=   -7.68411 V^-1    
          w0=      1e-08 meter          dvt0=    2.90472         
        dvt1=   0.430269                dvt2=  -0.134857 V^-1    
       dvt0w=          0 meter^-1      dvt1w=          0 meter^-1
       dvt2w=          0 V^-1           dsub=   0.254346         
        eta0=  0.0246738                etab=-0.00140612 V^-1    
          u0=     458.44 cm^2/V/sec         ua=      1e-13 m/V     
          ub= 1.4855e-18 (m/V)^2          uc=1.62994e-11 V^-1    
        vsat=     164399 m/sec            a1=8.21959e-05 v^-1    
          a2=   0.356479               delta=       0.01 V       
        rdsw=    1387.11 ohm-um         prwg=  0.0299916 V^-1    
        prwb=  0.0363981 V^-1/2           wr=          1         
        pclm=    2.59452             pdiblc1=  -0.428234         
     pdiblc2= 0.00231174             pdiblcb= -0.0272914 V^-1    
      pscbe1=5.59862e+08 V/m          pscbe2=5.46165e-05 V/m     
       drout=   0.728357                pvag=          0         
     nfactor=   0.836558                cdsc=    0.00024 f/m^2   
       cdscb=          0 f/V/m^2       cdscd=          0 f/V/m^2 
         cit=          0 f/m^2        alpha0=          0 m/V     
       beta0=         30 V               dlc=3.59761e-08 meter   
         dwc=2.47235e-07 meter           clc=      1e-07 meter   
         cle=        0.6                cgso=      2e-10 f/m     
        cgdo=      2e-10 f/m            cgbo=      1e-09 f/m     
        cgsl=          0 f/m            cgdl=          0 f/m     
      ckappa=        0.6                  cf=          0 f/m     
        tnom=     300.15 K               kt1=    -0.2501 V       
        kt1l=  -2.58e-09                 kt2=          0         
         ute=         -1                 ua1=    5.4e-10 m/V     
         ub1=   -4.8e-19 (m/V)^2         uc1=   -7.5e-11 m/V^2   
          at=     100000 m/s             prt=      8.621         
         using Berkeley noise model       noiMod=          1         
        noia=      1e+20                noib=      50000         
        noic=   -1.4e-12                  em=    4.1e+07         
          ef=          1                  af=          1         
          kf=          0              gdsnoi=-1.23457e-29         
         using Hspice diodes            using ACM 
         acm=         0                 hdif=         0 meter    
        ldif=         0 meter             js=         0 amp/m^2  
         jsw=         0 amp/m            xti=         0          
           n=         1                   cj=0.000419777 f/m^2    
          mj=  0.451504                   pb=      0.99 V        
        cjsw=3.24272e-10 f/m             mjsw=  0.115399          
         php=      0.99 V               pbsw (not used)           
      cjgate=3.24272e-10 f/m            cjswg (not used)           
       mjswg (not used)                 pbswg (not used)           
       lketa= 0.00117319               wketa= -0.0248758         
       pvth0=  0.0585501                 pk2= -0.0299638         
       prdsw=    133.286         
 ***************************************************************************
 ***        model parameters  model name:   0:cmosptt  model type:pmos   ***
 ***************************************************************************

   *** general parameters ***
    deriv=   0.           

   ***  level 49  model parameters  ***

      hspver=    2006.03               level=         49         
     version=        3.1            paramchk=          0         
      apwarn=          1                lite=          0         
      vgslim=          0             binUnit=          1         
      capMod=          2               xpart=        0.5         
      mobMod=          1              nqsMod=          0         
      stiMod=          0                 elm=          5         
    sfvtflag=          0                 tox=   1.39e-08 meter   
          xj=    1.5e-07 meter       binflag=          0         
        lmin=          0 meter          lmax=          0 meter   
        wmin=          0 meter          wmax=          0 meter   
        lref=          0 meter          wref=          0 meter   
        lint=5.52881e-08 meter          wint=2.83804e-07 meter   
       lmult=          1               wmult=          1         
          ll=          0                 lln=          1         
          lw=          0                 lwn=          1         
         lwl=          0                  wl=          0         
         wln=          1                  ww=          0         
         wwn=          1                 wwl=          0         
         dwg=-1.60638e-08 m/V             dwb=2.26639e-08 m/V^1/2 
          xl=          0                  xw=          0         
          a0=   0.843002                 ags=   0.132861 V^-1    
          b0=7.11791e-07 meter            b1=      5e-06 meter   
        keta=-0.00367486 V^-1           voff= -0.0558512 V       
       ngate=          0 cm^-3           vbx=          0 V       
         vbm=         -3 V                xt=   1.55e-07 meter   
        vth0=  -0.921435 V               nch=    1.7e+17 cm^-3   
        nsub=      6e+16 cm^-3           nlx=  2.594e-08 meter   
      gamma1=          0 V^-1/2       gamma2=          0 V^-1/2  
          k1=   0.555372 V^1/2            k2= 0.00876333         
          k3=    6.30636                 k3b=  -0.648736 V^-1    
          w0= 1.2807e-08 meter          dvt0=    2.51312         
        dvt1=   0.548054                dvt2=  -0.118649 V^-1    
       dvt0w=          0 meter^-1      dvt1w=          0 meter^-1
       dvt2w=          0 V^-1           dsub=          1         
        eta0=   0.325188                etab= -0.0580325 V^-1    
          u0=    212.017 cm^2/V/sec         ua=2.80712e-09 m/V     
          ub=      1e-21 (m/V)^2          uc=-5.82128e-11 V^-1    
        vsat=     171360 m/sec            a1=4.77502e-05 v^-1    
          a2=        0.3               delta=       0.01 V       
        rdsw=    2837.21 ohm-um         prwg= -0.0363908 V^-1    
        prwb=-1.01672e-05 V^-1/2           wr=          1         
        pclm=    2.24096             pdiblc1=  0.0411445         
     pdiblc2= 0.00335557             pdiblcb= -0.0551797 V^-1    
      pscbe1=6.44809e+09 V/m          pscbe2=6.30085e-10 V/m     
       drout=    0.20369                pvag=          0         
     nfactor=   0.934249                cdsc=    0.00024 f/m^2   
       cdscb=          0 f/V/m^2       cdscd=          0 f/V/m^2 
         cit=          0 f/m^2        alpha0=          0 m/V     
       beta0=         30 V               dlc=5.52881e-08 meter   
         dwc=2.83804e-07 meter           clc=      1e-07 meter   
         cle=        0.6                cgso=    2.9e-10 f/m     
        cgdo=    2.9e-10 f/m            cgbo=      1e-09 f/m     
        cgsl=          0 f/m            cgdl=          0 f/m     
      ckappa=        0.6                  cf=          0 f/m     
        tnom=     300.15 K               kt1=    -0.2942 V       
        kt1l=   1.68e-09                 kt2=          0         
         ute=         -1                 ua1=    4.5e-09 m/V     
         ub1=   -6.3e-18 (m/V)^2         uc1=     -1e-10 m/V^2   
          at=       1000 m/s             prt=     59.494         
         using Berkeley noise model       noiMod=          1         
        noia=    9.9e+18                noib=       2400         
        noic=    1.4e-12                  em=    4.1e+07         
          ef=          1                  af=          1         
          kf=          0              gdsnoi=-1.23457e-29         
         using Hspice diodes            using ACM 
         acm=         0                 hdif=         0 meter    
        ldif=         0 meter             js=         0 amp/m^2  
         jsw=         0 amp/m            xti=         0          
           n=         1                   cj=0.000723553 f/m^2    
          mj=  0.495529                   pb=  0.952735 V        
        cjsw=2.69279e-10 f/m             mjsw=  0.295839          
         php=  0.952735 V               pbsw (not used)           
      cjgate=2.69279e-10 f/m            cjswg (not used)           
       mjswg (not used)                 pbswg (not used)           
       lketa= -0.0042059               wketa= 0.00529216         
       pvth0= 0.00598016                 pk2= 0.00373981         
       prdsw=    14.8598         
  **info** (bpm_custom.sp:37) DC voltage reset to initial transient source value              in source        0:vclk                new dc=  0.0000D+00
  **warning** (bpm_custom.sp:2115) Both nodes of element c239 are connected together; Line ignored.
 

 Warning: Ps = 0 is less than Weff = 2.50553e-06 in BSIM3 model    0:cmosntt element m1001 with W = 3e-06, L = 6e-07

  
      
 **info** set option symb=1 internally to help for convergence.
 *****************************************************************
 ******  option summary
 ******
 runlvl  = 3         bypass  = 2         
 **info** dc convergence successful at Newton-Raphson method 
1****** HSPICE -- K-2015.06 linux64 (May 25 2015) ******                        
 ******  
 *********************************************************

 ****** operating point information tnom=  25.000 temp=  70.000 ******
 ****** operating point status is all       simulation time is     0.     
    node    =voltage      node    =voltage      node    =voltage

 +0:bs2_0[1]=   5.0000  0:bs2_0[1]=   3.7508  0:bs2_0[1]=   3.5796n
 +0:bs2_0[1]=  12.7954n 0:bs2_0[1]=   5.0000  0:bs2_0[2]=  11.1858n
 +0:bs2_0[2]=   5.0000  0:bs2_0[2]=  22.3717n 0:bs2_0[2]=   4.1900 
 +0:bs2_0[2]=  51.1303n 0:bs2_0[2]=   5.0000  0:bs2_0[2]=   1.2439 
 +0:bs2_0[2]=  12.7954n 0:bs2_0[2]=   1.2439  0:bs2_0[2]=   5.0000 
 +0:bs2_0[2]=   4.1900  0:bs2_0[2]=  17.5771n 0:bs2_0[2]=   3.7508 
 +0:bs2_0[2]=   5.0000  0:bs2_0[2]=   5.0000  0:bs2_0[2]=   5.0000 
 +0:bs2_0[2]=   5.0000  0:bs2_0[2]=   3.7508  0:bs2_0[2]=   3.5796n
 +0:bs2_0[2]=  12.7954n 0:bs2_0[2]=   5.0000  0:bs2_0[3]=  11.1858n
 +0:bs2_0[3]=   5.0000  0:bs2_0[3]=  22.3717n 0:bs2_0[3]=   4.1900 
 +0:bs2_0[3]=  51.1303n 0:bs2_0[3]=   5.0000  0:bs2_0[3]=   1.2439 
 +0:bs2_0[3]=  12.7954n 0:bs2_0[3]=   1.2439  0:bs2_0[3]=   5.0000 
 +0:bs2_0[3]=   4.1900  0:bs2_0[3]=  17.5771n 0:bs2_0[3]=   3.7508 
 +0:bs2_0[3]=   5.0000  0:bs2_0[3]=   5.0000  0:bs2_0[3]=   5.0000 
 +0:bs2_0[3]=   5.0000  0:bs2_0[3]=   3.7508  0:bs2_0[3]=   3.5796n
 +0:bs2_0[3]=  12.7954n 0:bs2_0[3]=   5.0000  0:bs2_0[4]=  11.1858n
 +0:bs2_0[4]=   5.0000  0:bs2_0[4]=  22.3717n 0:bs2_0[4]=   4.1900 
 +0:bs2_0[4]=  51.1303n 0:bs2_0[4]=   5.0000  0:bs2_0[4]=   1.2439 
 +0:bs2_0[4]=  12.7954n 0:bs2_0[4]=   1.2439  0:bs2_0[4]=   5.0000 
 +0:bs2_0[4]=   4.1900  0:bs2_0[4]=  17.5771n 0:bs2_0[4]=   3.7508 
 +0:bs2_0[4]=   5.0000  0:bs2_0[4]=   5.0000  0:bs2_0[4]=   5.0000 
 +0:bs2_0[4]=   5.0000  0:bs2_0[4]=   3.7508  0:bs2_0[4]=   3.5796n
 +0:bs2_0[4]=  12.7954n 0:bs2_0[4]=   5.0000  0:bs2_0[5]=  11.1858n
 +0:bs2_0[5]=   5.0000  0:bs2_0[5]=  22.3717n 0:bs2_0[5]=   4.1900 
 +0:bs2_0[5]=  64.0216n 0:bs2_0[5]=   5.0000  0:bs2_0[5]=   1.2439 
 +0:bs2_0[5]=  12.7954n 0:bs2_0[5]=   1.2439  0:bs2_0[5]=   5.0000 
 +0:bs2_0[5]=   4.1900  0:bs2_0[5]=  17.5771n 0:bs2_0[5]=   3.7508 
 +0:bs2_0[5]=   5.0000  0:bs2_0[5]=   5.0000  0:bs2_0[5]=   5.0000 
 +0:bs2_0[5]=   5.0000  0:bs2_0[0]=  11.1858n 0:bs2_0[5]=   3.7508 
 +0:bs2_0[5]=   3.5796n 0:bs2_0[5]=  12.7954n 0:bs2_0[5]=   5.0000 
 +0:bs2_0[6]=  11.1858n 0:bs2_0[6]=   5.0000  0:bs2_0[6]=  22.3717n
 +0:bs2_0[6]=  32.9965n 0:bs2_0[6]=   5.0000  0:bs2_0[6]=  65.9929n
 +0:bs2_0[0]=   5.0000  0:bs2_0[6]= 125.5202a 0:bs2_0[6]=   5.0000 
 +0:bs2_0[6]=   6.4958n 0:bs2_0[6]=   5.0000  0:bs2_0[6]=   4.1900 
 +0:bs2_0[6]=  30.4684n 0:bs2_0[6]=   3.7508  0:bs2_0[6]= 981.6865m
 +0:bs2_0[6]=   3.7508  0:bs2_0[6]=   5.0000  0:bs2_0[0]=  22.3717n
 +0:bs2_0[6]=   5.0000  0:bs2_0[6]=   3.7508  0:bs2_0[6]=   3.5796n
 +0:bs2_0[6]=  12.7954n 0:bs2_0[6]=   5.0000  0:bs2_0[7]=  11.1858n
 +0:bs2_0[7]=   5.0000  0:bs2_0[7]=  22.3717n 0:bs2_0[7]=  32.9965n
 +0:bs2_0[7]=   5.0000  0:bs2_0[0]=   4.1900  0:bs2_0[7]=  65.9929n
 +0:bs2_0[7]= 125.5202a 0:bs2_0[7]=   5.0000  0:bs2_0[7]=   6.4958n
 +0:bs2_0[7]=   5.0000  0:bs2_0[7]=   4.1900  0:bs2_0[7]=  30.4684n
 +0:bs2_0[7]=   3.7508  0:bs2_0[7]= 981.6865m 0:bs2_0[7]=   3.7508 
 +0:bs2_0[0]=  51.1303n 0:bs2_0[7]=   5.0000  0:bs2_0[7]=   5.0000 
 +0:bs2_0[7]=   3.7508  0:bs2_0[7]=   3.5796n 0:bs2_0[7]=  12.7954n
 +0:bs2_0[7]=   5.0000  0:bs1_0[0]=  11.1858n 0:bs1_0[0]=   5.0000 
 +0:bs1_0[0]=  22.3717n 0:bs1_0[0]=   4.1900  0:bs2_0[0]=   5.0000 
 +0:bs1_0[0]=  12.7826n 0:bs1_0[0]=   5.0000  0:bs1_0[0]=   1.2439 
 +0:bs1_0[0]=  12.7954n 0:bs1_0[0]=   1.2439  0:bs1_0[0]=   5.0000 
 +0:bs1_0[0]=   4.1900  0:bs1_0[0]=  17.5771n 0:bs1_0[0]=   3.7508 
 +0:bs1_0[0]=   5.0000  0:bs2_0[0]=   1.2439  0:bs1_0[0]=   5.0000 
 +0:bs1_0[0]=   5.0000  0:bs1_0[0]=   5.0000  0:bs1_0[0]=   3.7508 
 +0:bs1_0[0]=   3.5796n 0:bs1_0[0]=  12.7954n 0:bs1_0[0]=   5.0000 
 +0:bs1_0[0]=   5.0000  0:bs1_0[0]=   5.0000  0:bs1_0[0]=   5.0000 
 +0:bs2_0[0]=  12.7954n 0:bs1_0[0]=   5.0000  0:bs1_0[0]=   5.0000 
 +0:bs1_0[0]=   5.0000  0:bs1_0[0]= 826.2692m 0:bs1_0[0]=   1.2439 
 +0:bs1_0[0]=   4.1593  0:bs1_0[0]= 328.8009m 0:bs1_0[0]=   1.3322 
 +0:bs1_0[1]=  11.1858n 0:bs1_0[1]=   5.0000  0:bs2_0[0]=   1.2439 
 +0:bs1_0[1]=  22.3717n 0:bs1_0[1]=   4.1900  0:bs1_0[1]=  12.7826n
 +0:bs1_0[1]=   5.0000  0:bs1_0[1]=   1.2439  0:bs1_0[1]=  12.7954n
 +0:bs1_0[1]=   1.2439  0:bs1_0[1]=   5.0000  0:bs1_0[1]=   4.1900 
 +0:bs1_0[1]=  17.5771n 0:bs2_0[0]=   5.0000  0:bs1_0[1]=   3.7508 
 +0:bs1_0[1]=   5.0000  0:bs1_0[1]=   5.0000  0:bs1_0[1]=   5.0000 
 +0:bs1_0[1]=   5.0000  0:bs1_0[1]=   3.7508  0:bs1_0[1]=   3.5796n
 +0:bs1_0[1]=  12.7954n 0:bs1_0[1]=   5.0000  0:bs1_0[1]=   5.0000 
 +0:bs2_0[0]=   4.1900  0:bs1_0[1]=   5.0000  0:bs1_0[1]=   5.0000 
 +0:bs1_0[1]=   5.0000  0:bs1_0[1]=   5.0000  0:bs1_0[1]=   5.0000 
 +0:bs1_0[1]= 826.2692m 0:bs1_0[1]=   1.2439  0:bs1_0[1]=   4.1593 
 +0:bs1_0[1]= 328.8009m 0:bs1_0[1]=   1.3322  0:bs2_0[0]=  17.5771n
 +0:bs1_0[2]=  11.1858n 0:bs1_0[2]=   5.0000  0:bs1_0[2]=  22.3717n
 +0:bs1_0[2]=   4.1900  0:bs1_0[2]=  12.7826n 0:bs1_0[2]=   5.0000 
 +0:bs1_0[2]=   1.2439  0:bs1_0[2]=  12.7954n 0:bs1_0[2]=   1.2439 
 +0:bs1_0[2]=   5.0000  0:bs2_0[0]=   3.7508  0:bs1_0[2]=   4.1900 
 +0:bs1_0[2]=  17.5771n 0:bs1_0[2]=   3.7508  0:bs1_0[2]=   5.0000 
 +0:bs1_0[2]=   5.0000  0:bs1_0[2]=   5.0000  0:bs1_0[2]=   5.0000 
 +0:bs1_0[2]=   3.7508  0:bs1_0[2]=   3.5796n 0:bs1_0[2]=  12.7954n
 +0:bs2_0[0]=   5.0000  0:bs1_0[2]=   5.0000  0:bs1_0[2]=   5.0000 
 +0:bs1_0[2]=   5.0000  0:bs1_0[2]=   5.0000  0:bs1_0[2]=   5.0000 
 +0:bs1_0[2]=   5.0000  0:bs1_0[2]=   5.0000  0:bs1_0[2]= 826.2692m
 +0:bs1_0[2]=   1.2439  0:bs1_0[2]=   4.1593  0:bs2_0[0]=   5.0000 
 +0:bs1_0[2]= 328.8009m 0:bs1_0[2]=   1.3322  0:bs1_0[3]=  11.1858n
 +0:bs1_0[3]=   5.0000  0:bs1_0[3]=  22.3717n 0:bs1_0[3]=   4.1900 
 +0:bs1_0[3]=  12.7826n 0:bs1_0[3]=   5.0000  0:bs1_0[3]=   1.2439 
 +0:bs1_0[3]=  12.7954n 0:bs2_0[0]=   5.0000  0:bs1_0[3]=   1.2439 
 +0:bs1_0[3]=   5.0000  0:bs1_0[3]=   4.1900  0:bs1_0[3]=  17.5771n
 +0:bs1_0[3]=   3.7508  0:bs1_0[3]=   5.0000  0:bs1_0[3]=   5.0000 
 +0:bs1_0[3]=   5.0000  0:bs1_0[3]=   5.0000  0:bs1_0[3]=   3.7508 
 +0:bs2_0[0]=   5.0000  0:bs1_0[3]=   3.5796n 0:bs1_0[3]=  12.7954n
 +0:bs1_0[3]=   5.0000  0:bs1_0[3]=   5.0000  0:bs1_0[3]=   5.0000 
 +0:bs1_0[3]=   5.0000  0:bs1_0[3]=   5.0000  0:bs1_0[3]=   5.0000 
 +0:bs1_0[3]=   5.0000  0:bs1_0[3]= 826.2692m 0:bs2_0[0]=   3.7508 
 +0:bs1_0[3]=   1.2439  0:bs1_0[3]=   4.1593  0:bs1_0[3]= 328.8009m
 +0:bs1_0[3]=   1.3322  0:bs1_0[4]=  11.1858n 0:bs1_0[4]=   5.0000 
 +0:bs1_0[4]=  22.3717n 0:bs1_0[4]=   4.1900  0:bs1_0[4]=  12.7826n
 +0:bs1_0[4]=   5.0000  0:bs2_0[0]=   3.5796n 0:bs1_0[4]=   1.2439 
 +0:bs1_0[4]=  12.7954n 0:bs1_0[4]=   1.2439  0:bs1_0[4]=   5.0000 
 +0:bs1_0[4]=   4.1900  0:bs1_0[4]=  17.5771n 0:bs1_0[4]=   3.7508 
 +0:bs1_0[4]=   5.0000  0:bs1_0[4]=   5.0000  0:bs1_0[4]=   5.0000 
 +0:bs2_0[0]=  12.7954n 0:bs1_0[4]=   5.0000  0:bs1_0[4]=   3.7508 
 +0:bs1_0[4]=   3.5796n 0:bs1_0[4]=  12.7954n 0:bs1_0[4]=   5.0000 
 +0:bs1_0[4]=   5.0000  0:bs1_0[4]=   5.0000  0:bs1_0[4]=   5.0000 
 +0:bs1_0[4]=   5.0000  0:bs1_0[4]=   5.0000  0:bs2_0[0]=   5.0000 
 +0:bs1_0[4]=   5.0000  0:bs1_0[4]= 826.2692m 0:bs1_0[4]=   1.2439 
 +0:bs1_0[4]=   4.1593  0:bs1_0[4]= 328.8009m 0:bs1_0[4]=   1.3322 
 +0:bs1_0[5]=  11.1858n 0:bs1_0[5]=   5.0000  0:bs1_0[5]=  22.3717n
 +0:bs1_0[5]=   4.1900  0:bs2_0[1]=  11.1858n 0:bs1_0[5]=  12.7826n
 +0:bs1_0[5]=   5.0000  0:bs1_0[5]=   1.2439  0:bs1_0[5]=  12.7954n
 +0:bs1_0[5]=   1.2439  0:bs1_0[5]=   5.0000  0:bs1_0[5]=   4.1900 
 +0:bs1_0[5]=  17.5771n 0:bs1_0[5]=   3.7508  0:bs1_0[5]=   5.0000 
 +0:bs2_0[1]=   5.0000  0:bs1_0[5]=   5.0000  0:bs1_0[5]=   5.0000 
 +0:bs1_0[5]=   5.0000  0:bs1_0[5]=   3.7508  0:bs1_0[5]=   3.5796n
 +0:bs1_0[5]=  12.7954n 0:bs1_0[5]=   5.0000  0:bs1_0[5]=   5.0000 
 +0:bs1_0[5]=   5.0000  0:bs1_0[5]=   5.0000  0:bs2_0[1]=  22.3717n
 +0:bs1_0[5]=   5.0000  0:bs1_0[5]=   5.0000  0:bs1_0[5]=   5.0000 
 +0:bs1_0[5]= 826.2692m 0:bs1_0[5]=   1.2439  0:bs1_0[5]=   4.1593 
 +0:bs1_0[5]= 328.8009m 0:bs1_0[5]=   1.3322  0:bs1_0[6]=  11.1858n
 +0:bs1_0[6]=   5.0000  0:bs2_0[1]=   4.1900  0:bs1_0[6]=  22.3717n
 +0:bs1_0[6]=   4.1900  0:bs1_0[6]=  12.7826n 0:bs1_0[6]=   5.0000 
 +0:bs1_0[6]=   1.2439  0:bs1_0[6]=  12.7954n 0:bs1_0[6]=   1.2439 
 +0:bs1_0[6]=   5.0000  0:bs1_0[6]=   4.1900  0:bs1_0[6]=  17.5771n
 +0:bs2_0[1]=  51.1303n 0:bs1_0[6]=   3.7508  0:bs1_0[6]=   5.0000 
 +0:bs1_0[6]=   5.0000  0:bs1_0[6]=   5.0000  0:bs1_0[6]=   5.0000 
 +0:bs1_0[6]=   3.7508  0:bs1_0[6]=   3.5796n 0:bs1_0[6]=  12.7954n
 +0:bs1_0[6]=   5.0000  0:bs1_0[6]=   5.0000  0:bs2_0[1]=   5.0000 
 +0:bs1_0[6]=   5.0000  0:bs1_0[6]=   5.0000  0:bs1_0[6]=   5.0000 
 +0:bs1_0[6]=   5.0000  0:bs1_0[6]=   5.0000  0:bs1_0[6]= 826.2692m
 +0:bs1_0[6]=   1.2439  0:bs1_0[6]=   4.1593  0:bs1_0[6]= 328.8009m
 +0:bs1_0[6]=   1.3322  0:bs2_0[1]=   1.2439  0:bs1_0[7]=  11.1858n
 +0:bs1_0[7]=   5.0000  0:bs1_0[7]=  22.3717n 0:bs1_0[7]=   4.1900 
 +0:bs1_0[7]=  12.7826n 0:bs1_0[7]=   5.0000  0:bs1_0[7]=   1.2439 
 +0:bs1_0[7]=  12.7954n 0:bs1_0[7]=   1.2439  0:bs1_0[7]=   5.0000 
 +0:bs2_0[1]=  12.7954n 0:bs1_0[7]=   4.1900  0:bs1_0[7]=  17.5771n
 +0:bs1_0[7]=   3.7508  0:bs1_0[7]=   5.0000  0:bs1_0[7]=   5.0000 
 +0:bs1_0[7]=   5.0000  0:bs1_0[7]=   5.0000  0:bs1_0[7]=   3.7508 
 +0:bs1_0[7]=   3.5796n 0:bs1_0[7]=  12.7954n 0:bs2_0[1]=   1.2439 
 +0:bs1_0[7]=   5.0000  0:bs1_0[7]=   5.0000  0:bs1_0[7]=   5.0000 
 +0:bs1_0[7]=   5.0000  0:bs1_0[7]=   5.0000  0:bs1_0[7]=   5.0000 
 +0:bs1_0[7]=   5.0000  0:bs1_0[7]= 826.2692m 0:bs1_0[7]=   1.2439 
 +0:bs1_0[7]=   4.1593  0:bs2_0[1]=   5.0000  0:bs1_0[7]= 328.8009m
 +0:bs1_0[7]=   1.3322  0:bs2_0[1]=   4.1900  0:bs2_0[1]=  17.5771n
 +0:bs2_0[1]=   3.7508  0:bs2_0[1]=   5.0000  0:bs2_0[1]=   5.0000 
 +0:bs2_0[1]=   5.0000  0:bs1_0[0]=  19.1867n 0:bs1_0[0]=  12.7954n
 +0:bs1_0[0]=  12.7826n 0:bs1_0[0]=  25.6739n 0:bs1_0[1]=  19.1867n
 +0:bs1_0[1]=  12.7954n 0:bs1_0[1]=  12.7826n 0:bs1_0[1]=  25.6739n
 +0:bs1_0[2]=  19.1867n 0:bs1_0[2]=  12.7954n 0:bs1_0[2]=  12.7826n
 +0:bs1_0[2]=  25.6739n 0:bs1_0[3]=  19.1867n 0:bs1_0[3]=  12.7954n
 +0:bs1_0[3]=  12.7826n 0:bs1_0[3]=  25.6739n 0:bs1_0[4]=  19.1867n
 +0:bs1_0[4]=  12.7954n 0:bs1_0[4]=  12.7826n 0:bs1_0[4]=  25.6739n
 +0:bs1_0[5]=  19.1867n 0:bs1_0[5]=  12.7954n 0:bs1_0[5]=  12.7826n
 +0:bs1_0[5]=  25.6739n 0:bs1_0[6]=  19.1867n 0:bs1_0[6]=  12.7954n
 +0:bs1_0[6]=  12.7826n 0:bs1_0[6]=  25.6739n 0:bs1_0[7]=  12.7826n
 +0:bs1_0[7]=  25.6739n 0:bs2_0[0]=  19.1867n 0:bs2_0[0]=  38.3477n
 +0:bs2_0[1]=  38.3477n 0:bs2_0[2]=  38.3477n 0:bs2_0[3]=  38.3477n
 +0:bs2_0[4]=  38.3477n 0:bs2_0[5]=  51.2390n 0:bs2_0[6]=   5.0000 
 +0:bs2_0[7]=   5.0000  0:clk     =   0.      0:cout    =  19.1867n
 +0:en      =   5.0000  0:init    =   5.0000  0:mcand_0 =   5.0000 
 +0:mcand_1 =   5.0000  0:mcand_2 =   5.0000  0:mcand_3 =   5.0000 
 +0:mcand_4 =   5.0000  0:mcand_5 =   5.0000  0:mcand_6 =   5.0000 
 +0:mcand_7 =   5.0000  0:mplier_0=   5.0000  0:mplier_1=   5.0000 
 +0:mplier_2=   0.      0:mplier_3=   0.      0:mplier_4=   0.     
 +0:mplier_5=   0.      0:mplier_6=   0.      0:mplier_7=   0.     
 +0:q_0     =  60.9368n 0:q_1     =  60.9368n 0:q_10    =  35.1542n
 +0:q_11    =  35.1542n 0:q_12    =  35.1542n 0:q_13    =  35.1542n
 +0:q_14    =  35.1542n 0:q_15    =  35.1542n 0:q_2     =  35.1542n
 +0:q_3     =  35.1542n 0:q_4     =  35.1542n 0:q_5     =  35.1542n
 +0:q_6     =  35.1542n 0:q_7     =  35.1542n 0:q_8     =  35.1542n
 +0:q_9     =  35.1542n 0:vdd     =   5.0000 


 maximum nodal capacitance=   1.083E-11         on node     0:vdd             

    nodal  capacitance table 

    node    =    cap      node    =    cap      node    =    cap

 +0:bs2_0[1]=  15.1362f 0:bs2_0[1]=   8.7099f 0:bs2_0[1]=  12.2061f
 +0:bs2_0[1]=  35.4903f 0:bs2_0[1]=  34.0868f 0:bs2_0[2]=   6.8417f
 +0:bs2_0[2]=  72.5816f 0:bs2_0[2]=  49.2542f 0:bs2_0[2]=   3.6404f
 +0:bs2_0[2]=  34.8082f 0:bs2_0[2]=  37.1473f 0:bs2_0[2]=   4.1113f
 +0:bs2_0[2]=  44.4934f 0:bs2_0[2]=   4.1113f 0:bs2_0[2]=  48.5835f
 +0:bs2_0[2]=   3.6404f 0:bs2_0[2]=   6.8417f 0:bs2_0[2]=   8.7099f
 +0:bs2_0[2]=  15.1362f 0:bs2_0[2]=  13.6773f 0:bs2_0[2]=  13.6773f
 +0:bs2_0[2]=  15.1362f 0:bs2_0[2]=   8.7099f 0:bs2_0[2]=  12.2061f
 +0:bs2_0[2]=  35.4903f 0:bs2_0[2]=  34.0868f 0:bs2_0[3]=   6.8417f
 +0:bs2_0[3]=  72.5816f 0:bs2_0[3]=  49.2542f 0:bs2_0[3]=   3.6404f
 +0:bs2_0[3]=  34.8082f 0:bs2_0[3]=  37.1473f 0:bs2_0[3]=   4.1113f
 +0:bs2_0[3]=  44.4934f 0:bs2_0[3]=   4.1113f 0:bs2_0[3]=  48.5835f
 +0:bs2_0[3]=   3.6404f 0:bs2_0[3]=   6.8417f 0:bs2_0[3]=   8.7099f
 +0:bs2_0[3]=  15.1362f 0:bs2_0[3]=  13.6773f 0:bs2_0[3]=  13.6773f
 +0:bs2_0[3]=  15.1362f 0:bs2_0[3]=   8.7099f 0:bs2_0[3]=  12.2061f
 +0:bs2_0[3]=  35.4903f 0:bs2_0[3]=  34.0868f 0:bs2_0[4]=   6.8417f
 +0:bs2_0[4]=  72.5816f 0:bs2_0[4]=  49.2542f 0:bs2_0[4]=   3.6404f
 +0:bs2_0[4]=  34.8082f 0:bs2_0[4]=  37.1473f 0:bs2_0[4]=   4.1113f
 +0:bs2_0[4]=  44.4934f 0:bs2_0[4]=   4.1113f 0:bs2_0[4]=  48.5835f
 +0:bs2_0[4]=   3.6404f 0:bs2_0[4]=   6.8417f 0:bs2_0[4]=   8.7099f
 +0:bs2_0[4]=  15.1362f 0:bs2_0[4]=  13.6773f 0:bs2_0[4]=  13.6773f
 +0:bs2_0[4]=  15.1362f 0:bs2_0[4]=   8.7099f 0:bs2_0[4]=  12.2061f
 +0:bs2_0[4]=  35.4903f 0:bs2_0[4]=  34.0868f 0:bs2_0[5]=   6.8417f
 +0:bs2_0[5]=  72.5816f 0:bs2_0[5]=  49.2542f 0:bs2_0[5]=   3.6404f
 +0:bs2_0[5]=  34.8082f 0:bs2_0[5]=  37.1473f 0:bs2_0[5]=   4.1113f
 +0:bs2_0[5]=  44.4934f 0:bs2_0[5]=   4.1113f 0:bs2_0[5]=  48.5835f
 +0:bs2_0[5]=   3.6404f 0:bs2_0[5]=   6.8417f 0:bs2_0[5]=   8.7099f
 +0:bs2_0[5]=  15.1362f 0:bs2_0[5]=  13.6773f 0:bs2_0[5]=  13.6773f
 +0:bs2_0[5]=  15.1362f 0:bs2_0[0]=   6.8417f 0:bs2_0[5]=   8.7099f
 +0:bs2_0[5]=  12.2061f 0:bs2_0[5]=  35.4903f 0:bs2_0[5]=  34.0868f
 +0:bs2_0[6]=   6.8417f 0:bs2_0[6]=  75.1879f 0:bs2_0[6]=  43.6372f
 +0:bs2_0[6]=   6.8417f 0:bs2_0[6]=  34.0375f 0:bs2_0[6]=  33.2949f
 +0:bs2_0[0]=  72.5816f 0:bs2_0[6]=   6.2066f 0:bs2_0[6]=  45.5988f
 +0:bs2_0[6]=   6.2066f 0:bs2_0[6]=  48.5835f 0:bs2_0[6]=   3.6404f
 +0:bs2_0[6]=   6.8417f 0:bs2_0[6]=   8.7099f 0:bs2_0[6]=   7.1912f
 +0:bs2_0[6]=   8.7099f 0:bs2_0[6]=  10.9766f 0:bs2_0[0]=  49.2542f
 +0:bs2_0[6]=  15.1362f 0:bs2_0[6]=   8.7099f 0:bs2_0[6]=  12.2061f
 +0:bs2_0[6]=  40.6445f 0:bs2_0[6]=  34.0868f 0:bs2_0[7]=   6.8417f
 +0:bs2_0[7]=  75.1879f 0:bs2_0[7]=  43.6372f 0:bs2_0[7]=   6.8417f
 +0:bs2_0[7]=  34.0375f 0:bs2_0[0]=   3.6404f 0:bs2_0[7]=  33.2949f
 +0:bs2_0[7]=   6.2066f 0:bs2_0[7]=  45.5988f 0:bs2_0[7]=   6.2066f
 +0:bs2_0[7]=  48.5835f 0:bs2_0[7]=   3.6404f 0:bs2_0[7]=   6.8417f
 +0:bs2_0[7]=   8.7099f 0:bs2_0[7]=   7.1912f 0:bs2_0[7]=   8.7099f
 +0:bs2_0[0]=  34.8082f 0:bs2_0[7]=  10.9766f 0:bs2_0[7]=  15.1362f
 +0:bs2_0[7]=   8.7099f 0:bs2_0[7]=  12.2061f 0:bs2_0[7]=  40.3767f
 +0:bs2_0[7]=  34.0868f 0:bs1_0[0]=   6.8417f 0:bs1_0[0]=  72.5816f
 +0:bs1_0[0]=  49.2542f 0:bs1_0[0]=   3.6404f 0:bs2_0[0]=  37.1473f
 +0:bs1_0[0]=  34.7999f 0:bs1_0[0]=  37.1473f 0:bs1_0[0]=   4.1113f
 +0:bs1_0[0]=  44.4934f 0:bs1_0[0]=   4.1113f 0:bs1_0[0]=  48.5835f
 +0:bs1_0[0]=   3.6404f 0:bs1_0[0]=   6.8417f 0:bs1_0[0]=   8.7099f
 +0:bs1_0[0]=  15.1362f 0:bs2_0[0]=   4.1113f 0:bs1_0[0]=  13.6773f
 +0:bs1_0[0]=  13.6773f 0:bs1_0[0]=  15.1362f 0:bs1_0[0]=   8.7099f
 +0:bs1_0[0]=  12.2061f 0:bs1_0[0]=  37.7087f 0:bs1_0[0]=  36.9132f
 +0:bs1_0[0]=  73.8990f 0:bs1_0[0]=  15.1362f 0:bs1_0[0]=  47.7007f
 +0:bs2_0[0]=  44.4934f 0:bs1_0[0]=  53.8384f 0:bs1_0[0]=  15.1362f
 +0:bs1_0[0]=  15.1362f 0:bs1_0[0]=  10.3682f 0:bs1_0[0]=   4.1113f
 +0:bs1_0[0]=  14.8806f 0:bs1_0[0]=   4.4803f 0:bs1_0[0]=   4.0867f
 +0:bs1_0[1]=   6.8417f 0:bs1_0[1]=  72.5816f 0:bs2_0[0]=   4.1113f
 +0:bs1_0[1]=  49.2542f 0:bs1_0[1]=   3.6404f 0:bs1_0[1]=  34.7999f
 +0:bs1_0[1]=  37.1473f 0:bs1_0[1]=   4.1113f 0:bs1_0[1]=  44.4934f
 +0:bs1_0[1]=   4.1113f 0:bs1_0[1]=  48.5835f 0:bs1_0[1]=   3.6404f
 +0:bs1_0[1]=   6.8417f 0:bs2_0[0]=  48.5835f 0:bs1_0[1]=   8.7099f
 +0:bs1_0[1]=  15.1362f 0:bs1_0[1]=  13.6773f 0:bs1_0[1]=  13.6773f
 +0:bs1_0[1]=  15.1362f 0:bs1_0[1]=   8.7099f 0:bs1_0[1]=  12.2061f
 +0:bs1_0[1]=  37.7087f 0:bs1_0[1]=  36.9132f 0:bs1_0[1]=  73.8990f
 +0:bs2_0[0]=   3.6404f 0:bs1_0[1]=  15.1362f 0:bs1_0[1]=  47.7007f
 +0:bs1_0[1]=  53.8384f 0:bs1_0[1]=  15.1362f 0:bs1_0[1]=  15.1362f
 +0:bs1_0[1]=  10.3682f 0:bs1_0[1]=   4.1113f 0:bs1_0[1]=  14.8806f
 +0:bs1_0[1]=   4.4803f 0:bs1_0[1]=   4.0867f 0:bs2_0[0]=   6.8417f
 +0:bs1_0[2]=   6.8417f 0:bs1_0[2]=  72.5816f 0:bs1_0[2]=  49.2542f
 +0:bs1_0[2]=   3.6404f 0:bs1_0[2]=  34.7999f 0:bs1_0[2]=  37.1473f
 +0:bs1_0[2]=   4.1113f 0:bs1_0[2]=  44.4934f 0:bs1_0[2]=   4.1113f
 +0:bs1_0[2]=  48.5835f 0:bs2_0[0]=   8.7099f 0:bs1_0[2]=   3.6404f
 +0:bs1_0[2]=   6.8417f 0:bs1_0[2]=   8.7099f 0:bs1_0[2]=  15.1362f
 +0:bs1_0[2]=  13.6773f 0:bs1_0[2]=  13.6773f 0:bs1_0[2]=  15.1362f
 +0:bs1_0[2]=   8.7099f 0:bs1_0[2]=  12.2061f 0:bs1_0[2]=  37.7087f
 +0:bs2_0[0]=  15.1362f 0:bs1_0[2]=  36.9132f 0:bs1_0[2]=  73.8990f
 +0:bs1_0[2]=  15.1362f 0:bs1_0[2]=  47.7007f 0:bs1_0[2]=  53.8384f
 +0:bs1_0[2]=  15.1362f 0:bs1_0[2]=  15.1362f 0:bs1_0[2]=  10.3682f
 +0:bs1_0[2]=   4.1113f 0:bs1_0[2]=  14.8806f 0:bs2_0[0]=  13.6773f
 +0:bs1_0[2]=   4.4803f 0:bs1_0[2]=   4.0867f 0:bs1_0[3]=   6.8417f
 +0:bs1_0[3]=  72.5816f 0:bs1_0[3]=  49.2542f 0:bs1_0[3]=   3.6404f
 +0:bs1_0[3]=  34.7999f 0:bs1_0[3]=  37.1473f 0:bs1_0[3]=   4.1113f
 +0:bs1_0[3]=  44.4934f 0:bs2_0[0]=  13.6773f 0:bs1_0[3]=   4.1113f
 +0:bs1_0[3]=  48.5835f 0:bs1_0[3]=   3.6404f 0:bs1_0[3]=   6.8417f
 +0:bs1_0[3]=   8.7099f 0:bs1_0[3]=  15.1362f 0:bs1_0[3]=  13.6773f
 +0:bs1_0[3]=  13.6773f 0:bs1_0[3]=  15.1362f 0:bs1_0[3]=   8.7099f
 +0:bs2_0[0]=  15.1362f 0:bs1_0[3]=  12.2061f 0:bs1_0[3]=  37.7087f
 +0:bs1_0[3]=  36.9132f 0:bs1_0[3]=  73.8990f 0:bs1_0[3]=  15.1362f
 +0:bs1_0[3]=  47.7007f 0:bs1_0[3]=  53.8384f 0:bs1_0[3]=  15.1362f
 +0:bs1_0[3]=  15.1362f 0:bs1_0[3]=  10.3682f 0:bs2_0[0]=   8.7099f
 +0:bs1_0[3]=   4.1113f 0:bs1_0[3]=  14.8806f 0:bs1_0[3]=   4.4803f
 +0:bs1_0[3]=   4.0867f 0:bs1_0[4]=   6.8417f 0:bs1_0[4]=  72.5816f
 +0:bs1_0[4]=  49.2542f 0:bs1_0[4]=   3.6404f 0:bs1_0[4]=  34.7999f
 +0:bs1_0[4]=  37.1473f 0:bs2_0[0]=  12.2061f 0:bs1_0[4]=   4.1113f
 +0:bs1_0[4]=  44.4934f 0:bs1_0[4]=   4.1113f 0:bs1_0[4]=  48.5835f
 +0:bs1_0[4]=   3.6404f 0:bs1_0[4]=   6.8417f 0:bs1_0[4]=   8.7099f
 +0:bs1_0[4]=  15.1362f 0:bs1_0[4]=  13.6773f 0:bs1_0[4]=  13.6773f
 +0:bs2_0[0]=  35.4903f 0:bs1_0[4]=  15.1362f 0:bs1_0[4]=   8.7099f
 +0:bs1_0[4]=  12.2061f 0:bs1_0[4]=  37.7087f 0:bs1_0[4]=  36.9132f
 +0:bs1_0[4]=  73.8990f 0:bs1_0[4]=  15.1362f 0:bs1_0[4]=  47.7007f
 +0:bs1_0[4]=  53.8384f 0:bs1_0[4]=  15.1362f 0:bs2_0[0]=  34.0868f
 +0:bs1_0[4]=  15.1362f 0:bs1_0[4]=  10.3682f 0:bs1_0[4]=   4.1113f
 +0:bs1_0[4]=  14.8806f 0:bs1_0[4]=   4.4803f 0:bs1_0[4]=   4.0867f
 +0:bs1_0[5]=   6.8417f 0:bs1_0[5]=  72.5816f 0:bs1_0[5]=  49.2542f
 +0:bs1_0[5]=   3.6404f 0:bs2_0[1]=   6.8417f 0:bs1_0[5]=  34.7999f
 +0:bs1_0[5]=  37.1473f 0:bs1_0[5]=   4.1113f 0:bs1_0[5]=  44.4934f
 +0:bs1_0[5]=   4.1113f 0:bs1_0[5]=  48.5835f 0:bs1_0[5]=   3.6404f
 +0:bs1_0[5]=   6.8417f 0:bs1_0[5]=   8.7099f 0:bs1_0[5]=  15.1362f
 +0:bs2_0[1]=  72.5816f 0:bs1_0[5]=  13.6773f 0:bs1_0[5]=  13.6773f
 +0:bs1_0[5]=  15.1362f 0:bs1_0[5]=   8.7099f 0:bs1_0[5]=  12.2061f
 +0:bs1_0[5]=  37.7087f 0:bs1_0[5]=  36.9132f 0:bs1_0[5]=  73.8990f
 +0:bs1_0[5]=  15.1362f 0:bs1_0[5]=  47.7007f 0:bs2_0[1]=  49.2542f
 +0:bs1_0[5]=  53.8384f 0:bs1_0[5]=  15.1362f 0:bs1_0[5]=  15.1362f
 +0:bs1_0[5]=  10.3682f 0:bs1_0[5]=   4.1113f 0:bs1_0[5]=  14.8806f
 +0:bs1_0[5]=   4.4803f 0:bs1_0[5]=   4.0867f 0:bs1_0[6]=   6.8417f
 +0:bs1_0[6]=  72.5816f 0:bs2_0[1]=   3.6404f 0:bs1_0[6]=  49.2542f
 +0:bs1_0[6]=   3.6404f 0:bs1_0[6]=  34.7999f 0:bs1_0[6]=  37.1473f
 +0:bs1_0[6]=   4.1113f 0:bs1_0[6]=  44.4934f 0:bs1_0[6]=   4.1113f
 +0:bs1_0[6]=  48.5835f 0:bs1_0[6]=   3.6404f 0:bs1_0[6]=   6.8417f
 +0:bs2_0[1]=  34.8082f 0:bs1_0[6]=   8.7099f 0:bs1_0[6]=  15.1362f
 +0:bs1_0[6]=  13.6773f 0:bs1_0[6]=  13.6773f 0:bs1_0[6]=  15.1362f
 +0:bs1_0[6]=   8.7099f 0:bs1_0[6]=  12.2061f 0:bs1_0[6]=  37.7087f
 +0:bs1_0[6]=  36.9132f 0:bs1_0[6]=  73.8990f 0:bs2_0[1]=  37.1473f
 +0:bs1_0[6]=  15.1362f 0:bs1_0[6]=  47.7007f 0:bs1_0[6]=  53.8384f
 +0:bs1_0[6]=  15.1362f 0:bs1_0[6]=  15.1362f 0:bs1_0[6]=  10.3682f
 +0:bs1_0[6]=   4.1113f 0:bs1_0[6]=  14.8806f 0:bs1_0[6]=   4.4803f
 +0:bs1_0[6]=   4.0867f 0:bs2_0[1]=   4.1113f 0:bs1_0[7]=   6.8417f
 +0:bs1_0[7]=  72.5816f 0:bs1_0[7]=  49.2542f 0:bs1_0[7]=   3.6404f
 +0:bs1_0[7]=  34.7999f 0:bs1_0[7]=  37.1473f 0:bs1_0[7]=   4.1113f
 +0:bs1_0[7]=  44.4934f 0:bs1_0[7]=   4.1113f 0:bs1_0[7]=  48.5835f
 +0:bs2_0[1]=  44.4934f 0:bs1_0[7]=   3.6404f 0:bs1_0[7]=   6.8417f
 +0:bs1_0[7]=   8.7099f 0:bs1_0[7]=  15.1362f 0:bs1_0[7]=  13.6773f
 +0:bs1_0[7]=  13.6773f 0:bs1_0[7]=  15.1362f 0:bs1_0[7]=   8.7099f
 +0:bs1_0[7]=  12.2061f 0:bs1_0[7]=  37.7087f 0:bs2_0[1]=   4.1113f
 +0:bs1_0[7]=  36.9132f 0:bs1_0[7]=  73.8990f 0:bs1_0[7]=  15.1362f
 +0:bs1_0[7]=  51.4263f 0:bs1_0[7]=  53.8384f 0:bs1_0[7]=  15.1362f
 +0:bs1_0[7]=  15.1362f 0:bs1_0[7]=  10.3682f 0:bs1_0[7]=   4.1113f
 +0:bs1_0[7]=  14.8806f 0:bs2_0[1]=  48.5835f 0:bs1_0[7]=   4.4803f
 +0:bs1_0[7]=   4.0867f 0:bs2_0[1]=   3.6404f 0:bs2_0[1]=   6.8417f
 +0:bs2_0[1]=   8.7099f 0:bs2_0[1]=  15.1362f 0:bs2_0[1]=  13.6773f
 +0:bs2_0[1]=  13.6773f 0:bs1_0[0]=  42.7137f 0:bs1_0[0]=  67.4049f
 +0:bs1_0[0]=  78.2360f 0:bs1_0[0]=  86.4682f 0:bs1_0[1]=  42.7137f
 +0:bs1_0[1]=  67.4049f 0:bs1_0[1]=  78.2360f 0:bs1_0[1]=  86.4682f
 +0:bs1_0[2]=  42.7137f 0:bs1_0[2]=  67.4049f 0:bs1_0[2]=  78.2360f
 +0:bs1_0[2]=  86.4682f 0:bs1_0[3]=  42.7137f 0:bs1_0[3]=  67.4049f
 +0:bs1_0[3]=  78.2360f 0:bs1_0[3]=  86.4682f 0:bs1_0[4]=  42.7137f
 +0:bs1_0[4]=  67.4049f 0:bs1_0[4]=  78.2360f 0:bs1_0[4]=  86.4682f
 +0:bs1_0[5]=  42.7137f 0:bs1_0[5]=  67.4049f 0:bs1_0[5]=  78.2360f
 +0:bs1_0[5]=  86.4682f 0:bs1_0[6]=  42.7137f 0:bs1_0[6]=  67.4049f
 +0:bs1_0[6]=  78.2360f 0:bs1_0[6]=  86.4682f 0:bs1_0[7]=  78.2360f
 +0:bs1_0[7]=  87.9845f 0:bs2_0[0]=  41.3575f 0:bs2_0[0]=  51.5185f
 +0:bs2_0[1]=  51.5185f 0:bs2_0[2]=  51.5185f 0:bs2_0[3]=  51.5185f
 +0:bs2_0[4]=  51.5185f 0:bs2_0[5]=  51.5185f 0:bs2_0[6]=  55.7785f
 +0:bs2_0[7]=  39.4899f 0:clk     = 475.0128f 0:cout    =  39.7600f
 +0:en      = 488.8650f 0:init    = 686.5246f 0:mcand_0 =  21.1439f
 +0:mcand_1 =  21.1439f 0:mcand_2 =  21.1439f 0:mcand_3 =  21.0503f
 +0:mcand_4 =  21.1439f 0:mcand_5 =  21.1439f 0:mcand_6 =  21.1439f
 +0:mcand_7 =  21.1439f 0:mplier_0=  13.2504f 0:mplier_1=  13.2504f
 +0:mplier_2=  11.8021f 0:mplier_3=  11.7517f 0:mplier_4=  11.8021f
 +0:mplier_5=  11.8021f 0:mplier_6=  11.8021f 0:mplier_7=  11.8021f
 +0:q_0     = 327.9409f 0:q_1     =  48.2073f 0:q_10    =  52.1952f
 +0:q_11    =  52.1088f 0:q_12    =  52.1088f 0:q_13    =  52.1088f
 +0:q_14    =  52.1088f 0:q_15    =  52.1952f 0:q_2     =  48.1713f
 +0:q_3     =  48.2073f 0:q_4     =  48.2073f 0:q_5     =  48.2073f
 +0:q_6     =  48.2073f 0:q_7     =  48.1713f 0:q_8     =  52.1088f
 +0:q_9     =  52.1088f 0:vdd     =  10.8330p

 

 **** voltage sources

 subckt                                                                    
 element  0:vclk     0:vdd      0:ven      0:vinit    0:vmc0     0:vmc1    
  volts      0.         5.0000     5.0000     5.0000     5.0000     5.0000 
  current    0.        -3.0497n    0.         0.       -15.0850p  -15.0850p
  power      0.        15.2487n    0.         0.        75.4252p   75.4252p

 subckt                                                                    
 element  0:vmc2     0:vmc3     0:vmc4     0:vmc5     0:vmc6     0:vmc7    
  volts      5.0000     5.0000     5.0000     5.0000     5.0000     5.0000 
  current  -15.0850p  -15.0850p  -15.0850p  -15.0850p  -15.0850p  -15.0850p
  power     75.4252p   75.4252p   75.4252p   75.4252p   75.4252p   75.4252p

 subckt                                                                    
 element  0:vmp0     0:vmp1     0:vmp2     0:vmp3     0:vmp4     0:vmp5    
  volts      5.0000     5.0000     0.         0.         0.         0.     
  current  -40.0850p  -55.1701p   45.0850p   35.0000p   35.0000p   35.0000p
  power    200.4252p  275.8505p    0.         0.         0.         0.     

 subckt                        
 element  0:vmp6     0:vmp7    
  volts      0.         0.     
  current   35.0000p   35.0000p
  power      0.         0.     

     total voltage source power dissipation=   16.3283n       watts




 **** mosfets


 subckt                                                                    
 element  0:m1000    0:m1001    0:m1002    0:m1003    0:m1004    0:m1005   
 model    0:cmosntt  0:cmosntt  0:cmosntt  0:cmosntt  0:cmosntt  0:cmosntt 
 region       Linear     Linear     Cutoff     Cutoff     Cutoff     Cutoff
  id         8.7508p    8.7508p   60.8704f   11.8209p    0.       -24.5061f
  ibs        0.         0.         0.         0.         0.         0.     
  ibd        0.         0.         0.         0.         0.         0.     
  vgs        5.0000     5.0000    51.1303n  809.9831m   -5.0000    -1.2439 
  vds       11.1858n   11.1858n    4.1900   809.9830m   -3.7561    -1.2439 
  vbs        0.       -11.1858n    0.        -4.1900    -5.0000    -1.2439 
  vth      699.7240m  699.7240m  647.1732m    1.1768   896.2738m  684.1235m
  vdsat      1.4215     1.4215    42.2397m   52.3981m   47.5097m   42.2420m
  vod        4.3003     4.3003  -647.1732m -366.7854m   -5.8963    -1.9280 
  beta     388.6356u  388.6356u  463.6339u  424.9742u  447.5141u  462.7920u
  gam eff    1.0307     1.0307     1.0307     1.3132     1.1430     1.0307 
  gm       599.1739f  599.1739f    1.4163p  316.3946p    0.       570.2361f
  gds      782.3150u  782.3150u   19.7438f    5.9284p    0.         8.1345f
  gmb      508.7354f  508.7354f  557.6377f   15.9385p    0.       229.2590f
  cdtot      5.7055f    6.8732f    3.1392f    4.0528f    3.6102f  501.1063a
  cgtot      4.8182f    4.8182f    2.8454f    2.0619f    2.7471f    2.8673f
  cstot      1.1202p    1.1362f  501.1065a  501.1682a  501.1061a  501.1061a
  cbtot      1.1248p    6.9007f    4.6886f    4.6827f    5.0363f    2.0730f
  cgs        1.6775f    1.6775f  309.7882a  437.9113a  485.2295a  484.8451a
  cgd        2.0893f    2.0893f  485.1066a  492.9768a  334.6526a  309.3903a



 subckt                                                                    
 element  0:m1006    0:m1007    0:m1008    0:m1009    0:m1010    0:m1011   
 model    0:cmosntt  0:cmosntt  0:cmosntt  0:cmosntt  0:cmosntt  0:cmosntt 
 region       Linear     Cutoff     Cutoff     Cutoff     Cutoff     Linear
  id        10.0100p   24.5061f    0.       -11.8209p  -60.8704f   13.7508p
  ibs        0.         0.         0.         0.         0.         0.     
  ibd        0.         0.         0.         0.         0.         0.     
  vgs        5.0000    12.7954n   -1.2439    62.6159n   -4.1900     5.0000 
  vds       12.7954n    1.2439     3.7561  -809.9830m   -4.1900    17.5771n
  vbs        0.         0.        -1.2439    -5.0000    -4.1900     0.     
  vth      699.7240m  684.1235m  896.2738m    1.1768   647.1732m  699.7240m
  vdsat      1.4215    42.2420m   47.5097m   52.3981m   42.2397m    1.4215 
  vod        4.3003  -684.1235m   -2.1401    -1.1768    -4.8372     4.3003 
  beta     388.6356u  462.7920u  447.5141u  424.9742u  463.6339u  388.6356u
  gam eff    1.0307     1.0307     1.1430     1.3132     1.0307     1.0307 
  gm       685.3921f  570.2361f    0.       316.3946p    1.4163p  941.5260f
  gds      782.3150u    8.1345f    0.         5.9284p   19.7437f  782.3150u
  gmb      581.9399f  229.2590f    0.        15.9385p  557.6375f  799.4133f
  cdtot      6.8732f    3.6102f    4.0528f    3.1393f  501.1065a    5.7055f
  cgtot      4.8182f    2.8673f    2.7471f    2.0619f    2.8454f    4.8182f
  cstot      1.1362f  501.1063a  501.1061a  501.1052a  501.1061a    1.1362f
  cbtot      6.9007f    5.1821f    5.4789f    3.7691f    2.0505f    5.7330f
  cgs        1.6775f  309.3903a  334.6526a  492.9768a  485.1066a    1.6775f
  cgd        2.0893f  484.8451a  485.2295a  437.9113a  309.7882a    2.0893f



 subckt                                                                    
 element  0:m1012    0:m1013    0:m1014    0:m1015    0:m1016    0:m1017   
 model    0:cmosntt  0:cmosptt  0:cmosptt  0:cmosptt  0:cmosptt  0:cmosptt 
 region       Linear     Cutoff     Cutoff     Linear     Linear     Cutoff
  id        13.7508p   -3.3735f    0.       -26.3870p  -26.3870p  5.306e-21
  ibs        0.         0.         0.         0.         0.         0.     
  ibd        0.         0.         0.         0.         0.         0.     
  vgs        5.0000   -17.0112n    1.2492    -5.0000    -5.0000    62.6159n
  vds       17.5771n   -1.2492    -3.7508   -39.8136n  -39.8136n   79.6272n
  vbs      -17.5771n    0.         1.2492     0.        39.8136n   79.6272n
  vth      699.7240m -849.7164m   -1.0743  -855.7622m -855.7622m -855.7622m
  vdsat      1.4215   -48.7786m  -53.0135m   -2.3271    -2.3271   -48.7798m
  vod        4.3003   849.7164m    2.3234    -4.1442    -4.1442   855.7622m
  beta     388.6356u  363.0430u  333.6194u  228.3604u  228.3604u  362.3202u
  gam eff    1.0307   536.7083m  525.9594m  536.7083m  536.7083m  536.7083m
  gm       941.5260f   76.1495f    0.         3.3758p    3.3758p  1.198e-19
  gds      782.3150u    1.2451f    0.       662.7649u  662.7649u   66.6372f
  gmb      799.4133f   30.8302f    0.         2.0108p    2.0108p  4.916e-20
  cdtot     11.7514f    7.1345f    6.5971f   12.1019f   16.6326f    9.4012f
  cgtot      4.8182f    6.1535f    6.0166f   10.2469f   10.2469f    6.1666f
  cstot      1.1362f    2.2796p    1.5754f    3.0343f    3.0343f    1.5754f
  cbtot     11.7789f    2.2866p    7.9884f   10.3136f   14.8443f   10.9438f
  cgs        1.6775f    1.4826f    1.4877f    4.6535f    4.6535f    1.5639f
  cgd        2.0893f    1.5640f    1.5622f    4.8198f    4.8198f    1.4847f



 subckt                                                                    
 element  0:m1018    0:m1019    0:m1020    0:m1021    0:m1022    0:m1023   
 model    0:cmosptt  0:cmosptt  0:cmosptt  0:cmosptt  0:cmosptt  0:cmosptt 
 region       Linear     Cutoff     Linear     Cutoff     Linear     Linear
  id       5.887e-19  -10.0468f -5.887e-19 -5.306e-21   26.3870p   26.3870p
  ibs        0.         0.         0.         0.         0.         0.     
  ibd        0.         0.         0.         0.         0.         0.     
  vgs       -5.0000   -79.6272n   -5.0000   -17.0112n   -5.0000    -5.0000 
  vds      888.1784a   -5.0000  -888.1784a  -79.6272n   39.8136n   39.8136n
  vbs      888.1784a    0.         0.       888.1784a   79.6272n   39.8136n
  vth     -855.7622m -831.5629m -855.7622m -855.7622m -855.7622m -855.7622m
  vdsat     -2.3271   -48.7748m   -2.3271   -48.7798m   -2.3271    -2.3271 
  vod       -4.1442   831.5628m   -4.1442   855.7621m   -4.1442    -4.1442 
  beta     228.3604u  365.2332u  228.3604u  362.3202u  228.3604u  228.3604u
  gam eff  536.7083m  536.7083m  536.7083m  536.7083m  536.7083m  536.7083m
  gm       7.531e-20  226.7840f  7.531e-20  1.198e-19    3.3758p    3.3758p
  gds      662.7649u    2.4318f  662.7649u   66.6372f  662.7649u  662.7649u
  gmb      4.486e-20   90.4979f  4.486e-20  4.916e-20    2.0108p    2.0108p
  cdtot      3.0343f    6.5971f   12.1019f   13.9318f   10.8601f    3.0343f
  cgtot     10.2469f    6.1152f   10.2469f    6.1666f   10.2469f   10.2469f
  cstot      4.2762f    1.5754f    3.0343f    1.5754f    4.2762f    4.2762f
  cbtot      2.4879f    8.0963f   10.3136f   15.4744f   10.3136f    2.4879f
  cgs        4.8198f    1.4765f    4.6535f    1.4847f    4.8198f    4.8198f
  cgd        4.6535f    1.5641f    4.8198f    1.5639f    4.6535f    4.6535f



 subckt                                                                    
 element  0:m1024    0:m1025    0:m1026    0:m1027    0:m1028    0:m1029   
 model    0:cmosptt  0:cmosptt  0:cmosptt  0:cmosptt  0:cmosntt  0:cmosntt 
 region       Cutoff     Cutoff     Cutoff     Linear     Linear     Cutoff
  id        -3.3735f    0.      -1.134e-21   11.2745p    6.2745p    1.2745p
  ibs        0.         0.         0.         0.         0.         0.     
  ibd        0.         0.         0.         0.         0.         0.     
  vgs      -79.6272n    1.2492     0.        -5.0000     5.0000    -3.5796n
  vds       -1.2492    -3.7508   -17.0112n   17.0112n    3.5796n    5.0000 
  vbs        0.         1.2492     0.        17.0112n    0.        -3.5796n
  vth     -849.7164m   -1.0743  -855.7622m -855.7622m  617.1463m  554.4367m
  vdsat    -48.7786m  -53.0135m  -48.7798m   -2.3271     1.4338    43.6776m
  vod      849.7163m    2.3234   855.7622m   -4.1442     4.3829  -554.4367m
  beta     363.0430u  333.6194u  362.3202u  228.3604u  839.4280u    1.0231m
  gam eff  536.7083m  525.9594m  536.7083m  536.7083m    1.0081     1.0081 
  gm        76.1496f    0.       2.559e-20    1.4424p  412.5168f   29.6432p
  gds        1.2451f    0.        66.6372f  662.7649u    1.7528m  538.1445f
  gmb       30.8303f    0.       1.050e-20  859.1429f  319.9050f   10.9960p
  cdtot      7.1345f    9.3444f   13.9318f    3.0343f   11.1049f    6.7565f
  cgtot      6.1535f    6.0166f    6.1666f   10.2469f    9.9552f    5.5088f
  cstot      1.5754f    1.5754f    1.5754f    4.2762f    2.5830f    1.1011f
  cbtot      8.6660f   10.7358f   15.4744f    2.4879f   10.6453f    9.4210f
  cgs        1.4826f    1.4877f    1.4847f    4.8198f    3.6333f  675.8304a
  cgd        1.5640f    1.5622f    1.5639f    4.6535f    4.5925f    1.0673f



 subckt                                                                    
 element  0:m1030    0:m1031    0:m1032    0:m1033    0:m1034    0:m1035   
 model    0:cmosptt  0:cmosntt  0:cmosptt  0:cmosptt  0:cmosntt  0:cmosntt 
 region       Cutoff     Linear     Cutoff     Cutoff     Cutoff     Linear
  id       -10.0468f   10.0100p    0.         0.       1.558e-21  -30.0000p
  ibs        0.         0.         0.         0.         0.         0.     
  ibd        0.         0.         0.         0.         0.         0.     
  vgs        0.         5.0000     5.0000   -25.5523n  -22.3588n    5.0000 
  vds       -5.0000    12.7954n    3.1935n  -38.3477n    3.1935n  -38.3477n
  vbs        0.         0.         5.0000     5.0000   -35.1542n  -38.3477n
  vth     -831.5629m  699.7240m   -1.5195    -1.5195   699.7240m  699.7240m
  vdsat    -48.7748m    1.4215   -57.5248m  -57.5248m   42.2430m    1.4215 
  vod      831.5629m    4.3003     6.5195     1.5195  -699.7240m    4.3003 
  beta     365.2332u  388.6356u  124.2790u  124.2790u  462.4266u  388.6356u
  gam eff  536.7083m    1.0307   497.8250m  497.8250m    1.0307     1.0307 
  gm       226.7836f  685.3921f    0.         0.       3.626e-20    2.0541p
  gds        2.4318f  782.3150u    0.       1.260e-23  487.9819f  782.3150u
  gmb       90.4978f  581.9399f    0.         0.       1.493e-20    1.7441p
  cdtot      6.5971f    6.8732f    9.3077f    3.4528f   15.7195f    6.0144f
  cgtot      6.1152f    4.8182f    2.8946f    2.2439f    2.8769f    4.8182f
  cstot      1.5754f    1.1362f  705.3938a  705.3938a  501.1061a    1.9950f
  cbtot      8.0963f    6.9007f   10.1159f    3.5911f   17.3014f    6.9007f
  cgs        1.4765f    1.6775f  696.7981a  697.8518a  309.2027a    2.0893f
  cgd        1.5641f    2.0893f  684.2357a  702.3300a  484.7309a    1.6775f



 subckt                                                                    
 element  0:m1036    0:m1037    0:m1038    0:m1039    0:m1040    0:m1041   
 model    0:cmosntt  0:cmosntt  0:cmosptt  0:cmosptt  0:cmosptt  0:cmosptt 
 region       Cutoff     Linear     Cutoff     Cutoff     Linear     Cutoff
  id       1.559e-20  -10.0000p    0.         0.       -10.0818p    0.     
  ibs        0.         0.         0.         0.         0.         0.     
  ibd        0.         0.         0.         0.         0.         0.     
  vgs       -6.3913n    5.0000     5.0000   -38.3349n   -5.0000    60.9368n
  vds       31.9436n  -12.7826n   31.9436n  -12.7826n  -15.2117n   25.6739n
  vbs      -19.1867n  -51.1303n    5.0000     5.0000     0.         5.0000 
  vth      699.7240m  699.7240m   -1.5195    -1.5195  -855.7622m   -1.5195 
  vdsat     42.2430m    1.4215   -57.5248m  -57.5248m   -2.3271   -57.5248m
  vod     -699.7240m    4.3003     6.5195     1.5195    -4.1442     1.5195 
  beta     462.4266u  388.6356u  124.2790u  124.2790u  228.3604u  124.2790u
  gam eff    1.0307     1.0307   497.8250m  497.8250m  536.7083m  497.8250m
  gm       3.627e-19  684.7042f    0.         0.         1.2898p    0.     
  gds      487.9818f  782.3150u    0.       1.260e-23  662.7649u  1.260e-23
  gmb      1.493e-19  581.3558f    0.         0.       768.2591f    0.     
  cdtot      5.9631f    1.1362f    3.8130f  705.3938a   15.1224f    3.8130f
  cgtot      2.8769f    4.8182f    2.8946f    2.2439f   10.2469f    2.2439f
  cstot     10.2575f    1.9950f    8.4744f  705.3938a    3.0343f  652.8640f
  cbtot     17.3014f    2.0225f   12.3902f  843.7632a   13.3341f  656.1100f
  cgs      309.2027a    2.0893f  696.7981a  697.8518a    4.6535f  702.3300a
  cgd      484.7309a    1.6775f  684.2357a  702.3300a    4.8198f  697.8518a



 subckt                                                                    
 element  0:m1042    0:m1043    0:m1044    0:m1045    0:m1046    0:m1047   
 model    0:cmosptt  0:cmosntt  0:cmosntt  0:cmosntt  0:cmosntt  0:cmosntt 
 region       Cutoff     Linear     Cutoff     Cutoff     Linear     Linear
  id         3.2490f   20.0850p   81.7995f   81.7996f    8.7508p    8.7508p
  ibs        0.         0.         0.         0.         0.         0.     
  ibd        0.         0.         0.         0.         0.         0.     
  vgs        5.0000     5.0000    35.2630n   60.9368n    5.0000     5.0000 
  vds        5.0000    25.6739n    5.0000     5.0000    11.1858n   11.1858n
  vbs        5.0000     0.       -25.6739n    0.         0.       -11.1858n
  vth     -845.4188m  699.7240m  637.0145m  637.0145m  699.7240m  699.7240m
  vdsat    -48.4447m    1.4215    42.2390m   42.2390m    1.4215     1.4215 
  vod        5.8454     4.3003  -637.0144m -637.0144m    4.3003     4.3003 
  beta     162.7861u  388.6356u  463.8595u  463.8595u  388.6356u  388.6356u
  gam eff  533.5245m    1.0307     1.0307     1.0307     1.0307     1.0307 
  gm        73.3396f    1.3752p    1.9032p    1.9032p  599.1739f  599.1739f
  gds      786.1150a  782.3150u   34.5734f   34.5734f  782.3150u  782.3150u
  gmb       29.7238f    1.1677p  745.0812f  745.0818f  508.7354f  508.7354f
  cdtot      6.5404f    7.4570f    3.7250f    3.7250f    5.7055f    6.8732f
  cgtot      3.0214f    4.8182f    2.8395f    2.8395f    4.8182f    4.8182f
  cstot    705.3938a    1.1362f  501.1066a  501.1066a    1.1362f    1.1362f
  cbtot      7.4919f    7.4846f    5.2684f    5.2684f    5.7330f    6.9007f
  cgs      700.2936a    1.6775f  309.8869a  309.8869a    1.6775f    1.6775f
  cgd      664.2219a    2.0893f  485.1763a  485.1763a    2.0893f    2.0893f



 subckt                                                                    
 element  0:m1048    0:m1049    0:m1050    0:m1051    0:m1052    0:m1053   
 model    0:cmosntt  0:cmosntt  0:cmosntt  0:cmosntt  0:cmosntt  0:cmosntt 
 region       Cutoff     Cutoff     Cutoff     Cutoff     Linear     Cutoff
  id        60.8704f   11.8209p    0.       -24.5061f   10.0100p   24.5061f
  ibs        0.         0.         0.         0.         0.         0.     
  ibd        0.         0.         0.         0.         0.         0.     
  vgs       51.1303n  809.9831m   -5.0000    -1.2439     5.0000    12.7954n
  vds        4.1900   809.9830m   -3.7561    -1.2439    12.7954n    1.2439 
  vbs        0.        -4.1900    -5.0000    -1.2439     0.         0.     
  vth      647.1732m    1.1768   896.2738m  684.1235m  699.7240m  684.1235m
  vdsat     42.2397m   52.3981m   47.5097m   42.2420m    1.4215    42.2420m
  vod     -647.1732m -366.7854m   -5.8963    -1.9280     4.3003  -684.1235m
  beta     463.6339u  424.9742u  447.5141u  462.7920u  388.6356u  462.7920u
  gam eff    1.0307     1.3132     1.1430     1.0307     1.0307     1.0307 
  gm         1.4163p  316.3946p    0.       570.2361f  685.3921f  570.2361f
  gds       19.7438f    5.9284p    0.         8.1345f  782.3150u    8.1345f
  gmb      557.6377f   15.9385p    0.       229.2590f  581.9399f  229.2590f
  cdtot      3.1392f    4.0528f    3.6102f  501.1063a    6.8732f    3.6102f
  cgtot      2.8454f    2.0619f    2.7471f    2.8673f    4.8182f    2.8673f
  cstot    501.1065a  501.1682a  501.1061a  501.1061a    1.1362f  501.1063a
  cbtot      4.6886f    4.6827f    5.0363f    2.0730f    6.9007f    5.1821f
  cgs      309.7882a  437.9113a  485.2295a  484.8451a    1.6775f  309.3903a
  cgd      485.1066a  492.9768a  334.6526a  309.3903a    2.0893f  484.8451a



 subckt                                                                    
 element  0:m1054    0:m1055    0:m1056    0:m1057    0:m1058    0:m1059   
 model    0:cmosntt  0:cmosntt  0:cmosntt  0:cmosntt  0:cmosntt  0:cmosptt 
 region       Cutoff     Cutoff     Cutoff     Linear     Linear     Cutoff
  id         0.       -11.8209p  -60.8704f   13.7508p   13.7508p   -3.3735f
  ibs        0.         0.         0.         0.         0.         0.     
  ibd        0.         0.         0.         0.         0.         0.     
  vgs       -1.2439    62.6159n   -4.1900     5.0000     5.0000   -17.0112n
  vds        3.7561  -809.9830m   -4.1900    17.5771n   17.5771n   -1.2492 
  vbs       -1.2439    -5.0000    -4.1900     0.       -17.5771n    0.     
  vth      896.2738m    1.1768   647.1732m  699.7240m  699.7240m -849.7164m
  vdsat     47.5097m   52.3981m   42.2397m    1.4215     1.4215   -48.7786m
  vod       -2.1401    -1.1768    -4.8372     4.3003     4.3003   849.7164m
  beta     447.5141u  424.9742u  463.6339u  388.6356u  388.6356u  363.0430u
  gam eff    1.1430     1.3132     1.0307     1.0307     1.0307   536.7083m
  gm         0.       316.3946p    1.4163p  941.5260f  941.5260f   76.1495f
  gds        0.         5.9284p   19.7437f  782.3150u  782.3150u    1.2451f
  gmb        0.        15.9385p  557.6375f  799.4133f  799.4133f   30.8302f
  cdtot      4.0528f    3.1393f  501.1065a    5.7055f   11.7514f    7.1345f
  cgtot      2.7471f    2.0619f    2.8454f    4.8182f    4.8182f    6.1535f
  cstot    501.1061a  501.1052a  501.1061a    1.1362f    1.1362f    1.5754f
  cbtot      5.4789f    3.7691f    2.0505f    5.7330f   11.7789f    8.6660f
  cgs      334.6526a  492.9768a  485.1066a    1.6775f    1.6775f    1.4826f
  cgd      485.2295a  437.9113a  309.7882a    2.0893f    2.0893f    1.5640f



 subckt                                                                    
 element  0:m1060    0:m1061    0:m1062    0:m1063    0:m1064    0:m1065   
 model    0:cmosptt  0:cmosptt  0:cmosptt  0:cmosptt  0:cmosptt  0:cmosptt 
 region       Cutoff     Linear     Linear     Cutoff     Linear     Cutoff
  id         0.       -26.3870p  -26.3870p  5.306e-21  5.887e-19  -10.0468f
  ibs        0.         0.         0.         0.         0.         0.     
  ibd        0.         0.         0.         0.         0.         0.     
  vgs        1.2492    -5.0000    -5.0000    62.6159n   -5.0000   -79.6272n
  vds       -3.7508   -39.8136n  -39.8136n   79.6272n  888.1784a   -5.0000 
  vbs        1.2492     0.        39.8136n   79.6272n  888.1784a    0.     
  vth       -1.0743  -855.7622m -855.7622m -855.7622m -855.7622m -831.5629m
  vdsat    -53.0135m   -2.3271    -2.3271   -48.7798m   -2.3271   -48.7748m
  vod        2.3234    -4.1442    -4.1442   855.7622m   -4.1442   831.5628m
  beta     333.6194u  228.3604u  228.3604u  362.3202u  228.3604u  365.2332u
  gam eff  525.9594m  536.7083m  536.7083m  536.7083m  536.7083m  536.7083m
  gm         0.         3.3758p    3.3758p  1.198e-19  7.531e-20  226.7840f
  gds        0.       662.7649u  662.7649u   66.6372f  662.7649u    2.4318f
  gmb        0.         2.0108p    2.0108p  4.916e-20  4.486e-20   90.4979f
  cdtot      6.5971f   12.1019f   16.6326f    9.4012f    3.0343f    6.5971f
  cgtot      6.0166f   10.2469f   10.2469f    6.1666f   10.2469f    6.1152f
  cstot      1.5754f    3.0343f    3.0343f    1.5754f    4.2762f    1.5754f
  cbtot      7.9884f   10.3136f   14.8443f   10.9438f    2.4879f    8.0963f
  cgs        1.4877f    4.6535f    4.6535f    1.5639f    4.8198f    1.4765f
  cgd        1.5622f    4.8198f    4.8198f    1.4847f    4.6535f    1.5641f



 subckt                                                                    
 element  0:m1066    0:m1067    0:m1068    0:m1069    0:m1070    0:m1071   
 model    0:cmosptt  0:cmosptt  0:cmosptt  0:cmosptt  0:cmosptt  0:cmosptt 
 region       Linear     Cutoff     Linear     Linear     Cutoff     Cutoff
  id      -5.887e-19 -5.306e-21   26.3870p   26.3870p   -3.3735f    0.     
  ibs        0.         0.         0.         0.         0.         0.     
  ibd        0.         0.         0.         0.         0.         0.     
  vgs       -5.0000   -17.0112n   -5.0000    -5.0000   -79.6272n    1.2492 
  vds     -888.1784a  -79.6272n   39.8136n   39.8136n   -1.2492    -3.7508 
  vbs        0.       888.1784a   79.6272n   39.8136n    0.         1.2492 
  vth     -855.7622m -855.7622m -855.7622m -855.7622m -849.7164m   -1.0743 
  vdsat     -2.3271   -48.7798m   -2.3271    -2.3271   -48.7786m  -53.0135m
  vod       -4.1442   855.7621m   -4.1442    -4.1442   849.7163m    2.3234 
  beta     228.3604u  362.3202u  228.3604u  228.3604u  363.0430u  333.6194u
  gam eff  536.7083m  536.7083m  536.7083m  536.7083m  536.7083m  525.9594m
  gm       7.531e-20  1.198e-19    3.3758p    3.3758p   76.1496f    0.     
  gds      662.7649u   66.6372f  662.7649u  662.7649u    1.2451f    0.     
  gmb      4.486e-20  4.916e-20    2.0108p    2.0108p   30.8303f    0.     
  cdtot     12.1019f   13.9318f   10.8601f    3.0343f    7.1345f    9.3444f
  cgtot     10.2469f    6.1666f   10.2469f   10.2469f    6.1535f    6.0166f
  cstot      3.0343f    1.5754f    4.2762f    4.2762f    1.5754f    1.5754f
  cbtot     10.3136f   15.4744f   10.3136f    2.4879f    8.6660f   10.7358f
  cgs        4.6535f    1.4847f    4.8198f    4.8198f    1.4826f    1.4877f
  cgd        4.8198f    1.5639f    4.6535f    4.6535f    1.5640f    1.5622f



 subckt                                                                    
 element  0:m1072    0:m1073    0:m1074    0:m1075    0:m1076    0:m1077   
 model    0:cmosptt  0:cmosptt  0:cmosntt  0:cmosntt  0:cmosptt  0:cmosntt 
 region       Cutoff     Linear     Linear     Cutoff     Cutoff     Linear
  id      -1.134e-21   11.2745p    6.2745p    1.2745p  -10.0468f   10.0100p
  ibs        0.         0.         0.         0.         0.         0.     
  ibd        0.         0.         0.         0.         0.         0.     
  vgs        0.        -5.0000     5.0000    -3.5796n    0.         5.0000 
  vds      -17.0112n   17.0112n    3.5796n    5.0000    -5.0000    12.7954n
  vbs        0.        17.0112n    0.        -3.5796n    0.         0.     
  vth     -855.7622m -855.7622m  617.1463m  554.4367m -831.5629m  699.7240m
  vdsat    -48.7798m   -2.3271     1.4338    43.6776m  -48.7748m    1.4215 
  vod      855.7622m   -4.1442     4.3829  -554.4367m  831.5629m    4.3003 
  beta     362.3202u  228.3604u  839.4280u    1.0231m  365.2332u  388.6356u
  gam eff  536.7083m  536.7083m    1.0081     1.0081   536.7083m    1.0307 
  gm       2.559e-20    1.4424p  412.5168f   29.6432p  226.7836f  685.3921f
  gds       66.6372f  662.7649u    1.7528m  538.1445f    2.4318f  782.3150u
  gmb      1.050e-20  859.1429f  319.9050f   10.9960p   90.4978f  581.9399f
  cdtot     13.9318f    3.0343f   11.1049f    6.7565f    6.5971f    6.8732f
  cgtot      6.1666f   10.2469f    9.9552f    5.5088f    6.1152f    4.8182f
  cstot      1.5754f    4.2762f    2.5830f    1.1011f    1.5754f    1.1362f
  cbtot     15.4744f    2.4879f   10.6453f    9.4210f    8.0963f    6.9007f
  cgs        1.4847f    4.8198f    3.6333f  675.8304a    1.4765f    1.6775f
  cgd        1.5639f    4.6535f    4.5925f    1.0673f    1.5641f    2.0893f



 subckt                                                                    
 element  0:m1078    0:m1079    0:m1080    0:m1081    0:m1082    0:m1083   
 model    0:cmosptt  0:cmosptt  0:cmosntt  0:cmosntt  0:cmosntt  0:cmosntt 
 region       Cutoff     Cutoff     Cutoff     Linear     Cutoff     Linear
  id         0.         0.       1.558e-21  -30.0000p  6.238e-21  -10.0000p
  ibs        0.         0.         0.         0.         0.         0.     
  ibd        0.         0.         0.         0.         0.         0.     
  vgs        5.0000   -25.5523n  -22.3588n    5.0000   -25.5523n    5.0000 
  vds        3.1935n  -38.3477n    3.1935n  -38.3477n   12.7826n  -12.7826n
  vbs        5.0000     5.0000   -35.1542n  -38.3477n  -38.3477n  -51.1303n
  vth       -1.5195    -1.5195   699.7240m  699.7240m  699.7240m  699.7240m
  vdsat    -57.5248m  -57.5248m   42.2430m    1.4215    42.2430m    1.4215 
  vod        6.5195     1.5195  -699.7240m    4.3003  -699.7240m    4.3003 
  beta     124.2790u  124.2790u  462.4266u  388.6356u  462.4266u  388.6356u
  gam eff  497.8250m  497.8250m    1.0307     1.0307     1.0307     1.0307 
  gm         0.         0.       3.626e-20    2.0541p  1.451e-19  684.7042f
  gds        0.       1.260e-23  487.9819f  782.3150u  487.9817f  782.3150u
  gmb        0.         0.       1.493e-20    1.7441p  5.975e-20  581.3558f
  cdtot      9.3077f    3.4528f   15.7195f    6.0144f    5.9631f    1.1362f
  cgtot      2.8946f    2.2439f    2.8769f    4.8182f    2.8769f    4.8182f
  cstot    705.3938a  705.3938a  501.1061a    1.9950f  501.1061a    1.9950f
  cbtot     10.1159f    3.5911f   17.3014f    6.9007f    7.5450f    2.0225f
  cgs      696.7981a  697.8518a  309.2027a    2.0893f  309.2027a    2.0893f
  cgd      684.2357a  702.3300a  484.7309a    1.6775f  484.7309a    1.6775f



 subckt                                                                    
 element  0:m1084    0:m1085    0:m1086    0:m1087    0:m1088    0:m1089   
 model    0:cmosptt  0:cmosptt  0:cmosptt  0:cmosptt  0:cmosptt  0:cmosntt 
 region       Cutoff     Cutoff     Linear     Cutoff     Cutoff     Linear
  id         0.         0.       -10.0818p    0.         3.2490f   20.0850p
  ibs        0.         0.         0.         0.         0.         0.     
  ibd        0.         0.         0.         0.         0.         0.     
  vgs        5.0000   -38.3349n   -5.0000    60.9368n    5.0000     5.0000 
  vds       12.7826n  -12.7826n  -15.2117n   25.6739n    5.0000    25.6739n
  vbs        5.0000     5.0000     0.         5.0000     5.0000     0.     
  vth       -1.5195    -1.5195  -855.7622m   -1.5195  -845.4188m  699.7240m
  vdsat    -57.5248m  -57.5248m   -2.3271   -57.5248m  -48.4447m    1.4215 
  vod        6.5195     1.5195    -4.1442     1.5195     5.8454     4.3003 
  beta     124.2790u  124.2790u  228.3604u  124.2790u  162.7861u  388.6356u
  gam eff  497.8250m  497.8250m  536.7083m  497.8250m  533.5245m    1.0307 
  gm         0.         0.         1.2898p    0.        73.3396f    1.3752p
  gds        0.       1.260e-23  662.7649u  1.260e-23  786.1150a  782.3150u
  gmb        0.         0.       768.2591f    0.        29.7238f    1.1677p
  cdtot      3.8130f  705.3938a   15.1224f    3.8130f    6.5404f    7.4570f
  cgtot      2.8946f    2.2439f   10.2469f    2.2439f    3.0214f    4.8182f
  cstot    705.3938a  705.3938a    3.0343f  705.3938a  705.3938a    1.1362f
  cbtot      4.6212f  843.7632a   13.3341f    3.9514f    7.4919f    7.4846f
  cgs      696.7981a  697.8518a    4.6535f  702.3300a  700.2936a    1.6775f
  cgd      684.2357a  702.3300a    4.8198f  697.8518a  664.2219a    2.0893f



 subckt                                                                    
 element  0:m1090    0:m1091    0:m1092    0:m1093    0:m1094    0:m1095   
 model    0:cmosntt  0:cmosntt  0:cmosntt  0:cmosntt  0:cmosntt  0:cmosntt 
 region       Cutoff     Cutoff     Linear     Linear     Cutoff     Cutoff
  id        81.7995f   81.7996f    8.7508p    8.7508p   60.8704f   11.8209p
  ibs        0.         0.         0.         0.         0.         0.     
  ibd        0.         0.         0.         0.         0.         0.     
  vgs       35.2630n   60.9368n    5.0000     5.0000    51.1303n  809.9831m
  vds        5.0000     5.0000    11.1858n   11.1858n    4.1900   809.9830m
  vbs      -25.6739n    0.         0.       -11.1858n    0.        -4.1900 
  vth      637.0145m  637.0145m  699.7240m  699.7240m  647.1732m    1.1768 
  vdsat     42.2390m   42.2390m    1.4215     1.4215    42.2397m   52.3981m
  vod     -637.0144m -637.0144m    4.3003     4.3003  -647.1732m -366.7854m
  beta     463.8595u  463.8595u  388.6356u  388.6356u  463.6339u  424.9742u
  gam eff    1.0307     1.0307     1.0307     1.0307     1.0307     1.3132 
  gm         1.9032p    1.9032p  599.1739f  599.1739f    1.4163p  316.3946p
  gds       34.5734f   34.5734f  782.3150u  782.3150u   19.7438f    5.9284p
  gmb      745.0812f  745.0818f  508.7354f  508.7354f  557.6377f   15.9385p
  cdtot      3.7250f    3.7250f    5.7055f    6.8732f    3.1392f    4.0528f
  cgtot      2.8395f    2.8395f    4.8182f    4.8182f    2.8454f    2.0619f
  cstot    501.1066a  501.1066a    1.1362f    1.1362f  501.1065a  501.1682a
  cbtot      5.2684f    5.2684f    5.7330f    6.9007f    4.6886f    4.6827f
  cgs      309.8869a  309.8869a    1.6775f    1.6775f  309.7882a  437.9113a
  cgd      485.1763a  485.1763a    2.0893f    2.0893f  485.1066a  492.9768a



 subckt                                                                    
 element  0:m1096    0:m1097    0:m1098    0:m1099    0:m1100    0:m1101   
 model    0:cmosntt  0:cmosntt  0:cmosntt  0:cmosntt  0:cmosntt  0:cmosntt 
 region       Cutoff     Cutoff     Linear     Cutoff     Cutoff     Cutoff
  id         0.       -24.5061f   10.0100p   24.5061f    0.       -11.8209p
  ibs        0.         0.         0.         0.         0.         0.     
  ibd        0.         0.         0.         0.         0.         0.     
  vgs       -5.0000    -1.2439     5.0000    12.7954n   -1.2439    62.6159n
  vds       -3.7561    -1.2439    12.7954n    1.2439     3.7561  -809.9830m
  vbs       -5.0000    -1.2439     0.         0.        -1.2439    -5.0000 
  vth      896.2738m  684.1235m  699.7240m  684.1235m  896.2738m    1.1768 
  vdsat     47.5097m   42.2420m    1.4215    42.2420m   47.5097m   52.3981m
  vod       -5.8963    -1.9280     4.3003  -684.1235m   -2.1401    -1.1768 
  beta     447.5141u  462.7920u  388.6356u  462.7920u  447.5141u  424.9742u
  gam eff    1.1430     1.0307     1.0307     1.0307     1.1430     1.3132 
  gm         0.       570.2361f  685.3921f  570.2361f    0.       316.3946p
  gds        0.         8.1345f  782.3150u    8.1345f    0.         5.9284p
  gmb        0.       229.2590f  581.9399f  229.2590f    0.        15.9385p
  cdtot      3.6102f  501.1063a    6.8732f    3.6102f    4.0528f    3.1393f
  cgtot      2.7471f    2.8673f    4.8182f    2.8673f    2.7471f    2.0619f
  cstot    501.1061a  501.1061a    1.1362f  501.1063a  501.1061a  501.1052a
  cbtot      5.0363f    2.0730f    6.9007f    5.1821f    5.4789f    3.7691f
  cgs      485.2295a  484.8451a    1.6775f  309.3903a  334.6526a  492.9768a
  cgd      334.6526a  309.3903a    2.0893f  484.8451a  485.2295a  437.9113a



 subckt                                                                    
 element  0:m1102    0:m1103    0:m1104    0:m1105    0:m1106    0:m1107   
 model    0:cmosntt  0:cmosntt  0:cmosntt  0:cmosptt  0:cmosptt  0:cmosptt 
 region       Cutoff     Linear     Linear     Cutoff     Cutoff     Linear
  id       -60.8704f   13.7508p   13.7508p   -3.3735f    0.       -26.3870p
  ibs        0.         0.         0.         0.         0.         0.     
  ibd        0.         0.         0.         0.         0.         0.     
  vgs       -4.1900     5.0000     5.0000   -17.0112n    1.2492    -5.0000 
  vds       -4.1900    17.5771n   17.5771n   -1.2492    -3.7508   -39.8136n
  vbs       -4.1900     0.       -17.5771n    0.         1.2492     0.     
  vth      647.1732m  699.7240m  699.7240m -849.7164m   -1.0743  -855.7622m
  vdsat     42.2397m    1.4215     1.4215   -48.7786m  -53.0135m   -2.3271 
  vod       -4.8372     4.3003     4.3003   849.7164m    2.3234    -4.1442 
  beta     463.6339u  388.6356u  388.6356u  363.0430u  333.6194u  228.3604u
  gam eff    1.0307     1.0307     1.0307   536.7083m  525.9594m  536.7083m
  gm         1.4163p  941.5260f  941.5260f   76.1495f    0.         3.3758p
  gds       19.7437f  782.3150u  782.3150u    1.2451f    0.       662.7649u
  gmb      557.6375f  799.4133f  799.4133f   30.8302f    0.         2.0108p
  cdtot    501.1065a    5.7055f   11.7514f    7.1345f    6.5971f   12.1019f
  cgtot      2.8454f    4.8182f    4.8182f    6.1535f    6.0166f   10.2469f
  cstot    501.1061a    1.1362f    1.1362f    1.5754f    1.5754f    3.0343f
  cbtot      2.0505f    5.7330f   11.7789f    8.6660f    7.9884f   10.3136f
  cgs      485.1066a    1.6775f    1.6775f    1.4826f    1.4877f    4.6535f
  cgd      309.7882a    2.0893f    2.0893f    1.5640f    1.5622f    4.8198f



 subckt                                                                    
 element  0:m1108    0:m1109    0:m1110    0:m1111    0:m1112    0:m1113   
 model    0:cmosptt  0:cmosptt  0:cmosptt  0:cmosptt  0:cmosptt  0:cmosptt 
 region       Linear     Cutoff     Linear     Cutoff     Linear     Cutoff
  id       -26.3870p  5.306e-21  5.887e-19  -10.0468f -5.887e-19 -5.306e-21
  ibs        0.         0.         0.         0.         0.         0.     
  ibd        0.         0.         0.         0.         0.         0.     
  vgs       -5.0000    62.6159n   -5.0000   -79.6272n   -5.0000   -17.0112n
  vds      -39.8136n   79.6272n  888.1784a   -5.0000  -888.1784a  -79.6272n
  vbs       39.8136n   79.6272n  888.1784a    0.         0.       888.1784a
  vth     -855.7622m -855.7622m -855.7622m -831.5629m -855.7622m -855.7622m
  vdsat     -2.3271   -48.7798m   -2.3271   -48.7748m   -2.3271   -48.7798m
  vod       -4.1442   855.7622m   -4.1442   831.5628m   -4.1442   855.7621m
  beta     228.3604u  362.3202u  228.3604u  365.2332u  228.3604u  362.3202u
  gam eff  536.7083m  536.7083m  536.7083m  536.7083m  536.7083m  536.7083m
  gm         3.3758p  1.198e-19  7.531e-20  226.7840f  7.531e-20  1.198e-19
  gds      662.7649u   66.6372f  662.7649u    2.4318f  662.7649u   66.6372f
  gmb        2.0108p  4.916e-20  4.486e-20   90.4979f  4.486e-20  4.916e-20
  cdtot     16.6326f    9.4012f    3.0343f    6.5971f   12.1019f   13.9318f
  cgtot     10.2469f    6.1666f   10.2469f    6.1152f   10.2469f    6.1666f
  cstot      3.0343f    1.5754f    4.2762f    1.5754f    3.0343f    1.5754f
  cbtot     14.8443f   10.9438f    2.4879f    8.0963f   10.3136f   15.4744f
  cgs        4.6535f    1.5639f    4.8198f    1.4765f    4.6535f    1.4847f
  cgd        4.8198f    1.4847f    4.6535f    1.5641f    4.8198f    1.5639f



 subckt                                                                    
 element  0:m1114    0:m1115    0:m1116    0:m1117    0:m1118    0:m1119   
 model    0:cmosptt  0:cmosptt  0:cmosptt  0:cmosptt  0:cmosptt  0:cmosptt 
 region       Linear     Linear     Cutoff     Cutoff     Cutoff     Linear
  id        26.3870p   26.3870p   -3.3735f    0.      -1.134e-21   11.2745p
  ibs        0.         0.         0.         0.         0.         0.     
  ibd        0.         0.         0.         0.         0.         0.     
  vgs       -5.0000    -5.0000   -79.6272n    1.2492     0.        -5.0000 
  vds       39.8136n   39.8136n   -1.2492    -3.7508   -17.0112n   17.0112n
  vbs       79.6272n   39.8136n    0.         1.2492     0.        17.0112n
  vth     -855.7622m -855.7622m -849.7164m   -1.0743  -855.7622m -855.7622m
  vdsat     -2.3271    -2.3271   -48.7786m  -53.0135m  -48.7798m   -2.3271 
  vod       -4.1442    -4.1442   849.7163m    2.3234   855.7622m   -4.1442 
  beta     228.3604u  228.3604u  363.0430u  333.6194u  362.3202u  228.3604u
  gam eff  536.7083m  536.7083m  536.7083m  525.9594m  536.7083m  536.7083m
  gm         3.3758p    3.3758p   76.1496f    0.       2.559e-20    1.4424p
  gds      662.7649u  662.7649u    1.2451f    0.        66.6372f  662.7649u
  gmb        2.0108p    2.0108p   30.8303f    0.       1.050e-20  859.1429f
  cdtot     10.8601f    3.0343f    7.1345f    9.3444f   13.9318f    3.0343f
  cgtot     10.2469f   10.2469f    6.1535f    6.0166f    6.1666f   10.2469f
  cstot      4.2762f    4.2762f    1.5754f    1.5754f    1.5754f    4.2762f
  cbtot     10.3136f    2.4879f    8.6660f   10.7358f   15.4744f    2.4879f
  cgs        4.8198f    4.8198f    1.4826f    1.4877f    1.4847f    4.8198f
  cgd        4.6535f    4.6535f    1.5640f    1.5622f    1.5639f    4.6535f



 subckt                                                                    
 element  0:m1120    0:m1121    0:m1122    0:m1123    0:m1124    0:m1125   
 model    0:cmosntt  0:cmosntt  0:cmosptt  0:cmosntt  0:cmosptt  0:cmosptt 
 region       Linear     Cutoff     Cutoff     Linear     Cutoff     Cutoff
  id         6.2745p    1.2745p  -10.0468f   10.0100p    0.         0.     
  ibs        0.         0.         0.         0.         0.         0.     
  ibd        0.         0.         0.         0.         0.         0.     
  vgs        5.0000    -3.5796n    0.         5.0000     5.0000   -25.5523n
  vds        3.5796n    5.0000    -5.0000    12.7954n    3.1935n  -38.3477n
  vbs        0.        -3.5796n    0.         0.         5.0000     5.0000 
  vth      617.1463m  554.4367m -831.5629m  699.7240m   -1.5195    -1.5195 
  vdsat      1.4338    43.6776m  -48.7748m    1.4215   -57.5248m  -57.5248m
  vod        4.3829  -554.4367m  831.5629m    4.3003     6.5195     1.5195 
  beta     839.4280u    1.0231m  365.2332u  388.6356u  124.2790u  124.2790u
  gam eff    1.0081     1.0081   536.7083m    1.0307   497.8250m  497.8250m
  gm       412.5168f   29.6432p  226.7836f  685.3921f    0.         0.     
  gds        1.7528m  538.1445f    2.4318f  782.3150u    0.       1.260e-23
  gmb      319.9050f   10.9960p   90.4978f  581.9399f    0.         0.     
  cdtot     11.1049f    6.7565f    6.5971f    6.8732f    9.3077f    3.4528f
  cgtot      9.9552f    5.5088f    6.1152f    4.8182f    2.8946f    2.2439f
  cstot      2.5830f    1.1011f    1.5754f    1.1362f  705.3938a  705.3938a
  cbtot     10.6453f    9.4210f    8.0963f    6.9007f   10.1159f    3.5911f
  cgs        3.6333f  675.8304a    1.4765f    1.6775f  696.7981a  697.8518a
  cgd        4.5925f    1.0673f    1.5641f    2.0893f  684.2357a  702.3300a



 subckt                                                                    
 element  0:m1126    0:m1127    0:m1128    0:m1129    0:m1130    0:m1131   
 model    0:cmosntt  0:cmosntt  0:cmosntt  0:cmosntt  0:cmosptt  0:cmosptt 
 region       Cutoff     Linear     Cutoff     Linear     Cutoff     Cutoff
  id       1.558e-21  -30.0000p  6.238e-21  -10.0000p    0.         0.     
  ibs        0.         0.         0.         0.         0.         0.     
  ibd        0.         0.         0.         0.         0.         0.     
  vgs      -22.3588n    5.0000   -25.5523n    5.0000     5.0000   -38.3349n
  vds        3.1935n  -38.3477n   12.7826n  -12.7826n   12.7826n  -12.7826n
  vbs      -35.1542n  -38.3477n  -38.3477n  -51.1303n    5.0000     5.0000 
  vth      699.7240m  699.7240m  699.7240m  699.7240m   -1.5195    -1.5195 
  vdsat     42.2430m    1.4215    42.2430m    1.4215   -57.5248m  -57.5248m
  vod     -699.7240m    4.3003  -699.7240m    4.3003     6.5195     1.5195 
  beta     462.4266u  388.6356u  462.4266u  388.6356u  124.2790u  124.2790u
  gam eff    1.0307     1.0307     1.0307     1.0307   497.8250m  497.8250m
  gm       3.626e-20    2.0541p  1.451e-19  684.7042f    0.         0.     
  gds      487.9819f  782.3150u  487.9817f  782.3150u    0.       1.260e-23
  gmb      1.493e-20    1.7441p  5.975e-20  581.3558f    0.         0.     
  cdtot     15.7195f    6.0144f    5.9631f    1.1362f    3.8130f  705.3938a
  cgtot      2.8769f    4.8182f    2.8769f    4.8182f    2.8946f    2.2439f
  cstot    501.1061a    1.9950f  501.1061a    1.9950f  705.3938a  705.3938a
  cbtot     17.3014f    6.9007f    7.5450f    2.0225f    4.6212f  843.7632a
  cgs      309.2027a    2.0893f  309.2027a    2.0893f  696.7981a  697.8518a
  cgd      484.7309a    1.6775f  484.7309a    1.6775f  684.2357a  702.3300a



 subckt                                                                    
 element  0:m1132    0:m1133    0:m1134    0:m1135    0:m1136    0:m1137   
 model    0:cmosptt  0:cmosptt  0:cmosptt  0:cmosntt  0:cmosntt  0:cmosntt 
 region       Linear     Cutoff     Cutoff     Linear     Cutoff     Cutoff
  id       -10.0818p    0.         3.2490f   20.0850p   81.7995f   81.7996f
  ibs        0.         0.         0.         0.         0.         0.     
  ibd        0.         0.         0.         0.         0.         0.     
  vgs       -5.0000    60.9368n    5.0000     5.0000    35.2630n   60.9368n
  vds      -15.2117n   25.6739n    5.0000    25.6739n    5.0000     5.0000 
  vbs        0.         5.0000     5.0000     0.       -25.6739n    0.     
  vth     -855.7622m   -1.5195  -845.4188m  699.7240m  637.0145m  637.0145m
  vdsat     -2.3271   -57.5248m  -48.4447m    1.4215    42.2390m   42.2390m
  vod       -4.1442     1.5195     5.8454     4.3003  -637.0144m -637.0144m
  beta     228.3604u  124.2790u  162.7861u  388.6356u  463.8595u  463.8595u
  gam eff  536.7083m  497.8250m  533.5245m    1.0307     1.0307     1.0307 
  gm         1.2898p    0.        73.3396f    1.3752p    1.9032p    1.9032p
  gds      662.7649u  1.260e-23  786.1150a  782.3150u   34.5734f   34.5734f
  gmb      768.2591f    0.        29.7238f    1.1677p  745.0812f  745.0818f
  cdtot     15.1224f    3.8130f    6.5404f    7.4570f    3.7250f    3.7250f
  cgtot     10.2469f    2.2439f    3.0214f    4.8182f    2.8395f    2.8395f
  cstot      3.0343f  705.3938a  705.3938a    1.1362f  501.1066a  501.1066a
  cbtot     13.3341f    3.9514f    7.4919f    7.4846f    5.2684f    5.2684f
  cgs        4.6535f  702.3300a  700.2936a    1.6775f  309.8869a  309.8869a
  cgd        4.8198f  697.8518a  664.2219a    2.0893f  485.1763a  485.1763a



 subckt                                                                    
 element  0:m1138    0:m1139    0:m1140    0:m1141    0:m1142    0:m1143   
 model    0:cmosntt  0:cmosntt  0:cmosntt  0:cmosntt  0:cmosntt  0:cmosntt 
 region       Linear     Linear     Cutoff     Cutoff     Cutoff     Cutoff
[...]
  vds        3.7561  -809.9830m   -4.1900    17.5771n   17.5771n   -1.2492 
  vbs       -1.2439    -5.0000    -4.1900     0.       -17.5771n    0.     
  vth      896.2738m    1.1768   647.1732m  699.7240m  699.7240m -849.7164m
  vdsat     47.5097m   52.3981m   42.2397m    1.4215     1.4215   -48.7786m
  vod       -2.1401    -1.1768    -4.8372     4.3003     4.3003   849.7164m
  beta     447.5141u  424.9742u  463.6339u  388.6356u  388.6356u  363.0430u
  gam eff    1.1430     1.3132     1.0307     1.0307     1.0307   536.7083m
  gm         0.       316.3946p    1.4163p  941.5260f  941.5260f   76.1495f
  gds        0.         5.9284p   19.7437f  782.3150u  782.3150u    1.2451f
  gmb        0.        15.9385p  557.6375f  799.4133f  799.4133f   30.8302f
  cdtot      4.0528f    3.1393f  501.1065a    5.7055f   11.7514f    7.1345f
  cgtot      2.7471f    2.0619f    2.8454f    4.8182f    4.8182f    6.1535f
  cstot    501.1061a  501.1052a  501.1061a    1.1362f    1.1362f    1.5754f
  cbtot      5.4789f    3.7691f    2.0505f    5.7330f   11.7789f    8.6660f
  cgs      334.6526a  492.9768a  485.1066a    1.6775f    1.6775f    1.4826f
  cgd      485.2295a  437.9113a  309.7882a    2.0893f    2.0893f    1.5640f



 subckt                                                                    
 element  0:m1858    0:m1859    0:m1860    0:m1861    0:m1862    0:m1863   
 model    0:cmosptt  0:cmosptt  0:cmosptt  0:cmosptt  0:cmosptt  0:cmosptt 
 region       Cutoff     Linear     Linear     Cutoff     Linear     Cutoff
  id         0.       -26.3870p  -26.3870p  5.306e-21  5.887e-19  -10.0468f
  ibs        0.         0.         0.         0.         0.         0.     
  ibd        0.         0.         0.         0.         0.         0.     
  vgs        1.2492    -5.0000    -5.0000    62.6159n   -5.0000   -79.6272n
  vds       -3.7508   -39.8136n  -39.8136n   79.6272n  888.1784a   -5.0000 
  vbs        1.2492     0.        39.8136n   79.6272n  888.1784a    0.     
  vth       -1.0743  -855.7622m -855.7622m -855.7622m -855.7622m -831.5629m
  vdsat    -53.0135m   -2.3271    -2.3271   -48.7798m   -2.3271   -48.7748m
  vod        2.3234    -4.1442    -4.1442   855.7622m   -4.1442   831.5628m
  beta     333.6194u  228.3604u  228.3604u  362.3202u  228.3604u  365.2332u
  gam eff  525.9594m  536.7083m  536.7083m  536.7083m  536.7083m  536.7083m
  gm         0.         3.3758p    3.3758p  1.198e-19  7.531e-20  226.7840f
  gds        0.       662.7649u  662.7649u   66.6372f  662.7649u    2.4318f
  gmb        0.         2.0108p    2.0108p  4.916e-20  4.486e-20   90.4979f
  cdtot      6.5971f   12.1019f   16.6326f    9.4012f    3.0343f    6.5971f
  cgtot      6.0166f   10.2469f   10.2469f    6.1666f   10.2469f    6.1152f
  cstot      1.5754f    3.0343f    3.0343f    1.5754f    4.2762f    1.5754f
  cbtot      7.9884f   10.3136f   14.8443f   10.9438f    2.4879f    8.0963f
  cgs        1.4877f    4.6535f    4.6535f    1.5639f    4.8198f    1.4765f
  cgd        1.5622f    4.8198f    4.8198f    1.4847f    4.6535f    1.5641f



 subckt                                                                    
 element  0:m1864    0:m1865    0:m1866    0:m1867    0:m1868    0:m1869   
 model    0:cmosptt  0:cmosptt  0:cmosptt  0:cmosptt  0:cmosptt  0:cmosptt 
 region       Linear     Cutoff     Linear     Linear     Cutoff     Cutoff
  id      -5.887e-19 -5.306e-21   26.3870p   26.3870p   -3.3735f    0.     
  ibs        0.         0.         0.         0.         0.         0.     
  ibd        0.         0.         0.         0.         0.         0.     
  vgs       -5.0000   -17.0112n   -5.0000    -5.0000   -79.6272n    1.2492 
  vds     -888.1784a  -79.6272n   39.8136n   39.8136n   -1.2492    -3.7508 
  vbs        0.       888.1784a   79.6272n   39.8136n    0.         1.2492 
  vth     -855.7622m -855.7622m -855.7622m -855.7622m -849.7164m   -1.0743 
  vdsat     -2.3271   -48.7798m   -2.3271    -2.3271   -48.7786m  -53.0135m
  vod       -4.1442   855.7621m   -4.1442    -4.1442   849.7163m    2.3234 
  beta     228.3604u  362.3202u  228.3604u  228.3604u  363.0430u  333.6194u
  gam eff  536.7083m  536.7083m  536.7083m  536.7083m  536.7083m  525.9594m
  gm       7.531e-20  1.198e-19    3.3758p    3.3758p   76.1496f    0.     
  gds      662.7649u   66.6372f  662.7649u  662.7649u    1.2451f    0.     
  gmb      4.486e-20  4.916e-20    2.0108p    2.0108p   30.8303f    0.     
  cdtot     12.1019f   13.9318f   10.8601f    3.0343f    7.1345f    9.3444f
  cgtot     10.2469f    6.1666f   10.2469f   10.2469f    6.1535f    6.0166f
  cstot      3.0343f    1.5754f    4.2762f    4.2762f    1.5754f    1.5754f
  cbtot     10.3136f   15.4744f   10.3136f    2.4879f    8.6660f   10.7358f
  cgs        4.6535f    1.4847f    4.8198f    4.8198f    1.4826f    1.4877f
  cgd        4.8198f    1.5639f    4.6535f    4.6535f    1.5640f    1.5622f



 subckt                                                                    
 element  0:m1870    0:m1871    0:m1872    0:m1873    0:m1874    0:m1875   
 model    0:cmosptt  0:cmosptt  0:cmosntt  0:cmosntt  0:cmosptt  0:cmosntt 
 region       Cutoff     Linear     Linear     Cutoff     Cutoff     Linear
  id      -1.134e-21   11.2745p    6.2745p    1.2745p  -10.0468f   10.0100p
  ibs        0.         0.         0.         0.         0.         0.     
  ibd        0.         0.         0.         0.         0.         0.     
  vgs        0.        -5.0000     5.0000    -3.5796n    0.         5.0000 
  vds      -17.0112n   17.0112n    3.5796n    5.0000    -5.0000    12.7954n
  vbs        0.        17.0112n    0.        -3.5796n    0.         0.     
  vth     -855.7622m -855.7622m  617.1463m  554.4367m -831.5629m  699.7240m
  vdsat    -48.7798m   -2.3271     1.4338    43.6776m  -48.7748m    1.4215 
  vod      855.7622m   -4.1442     4.3829  -554.4367m  831.5629m    4.3003 
  beta     362.3202u  228.3604u  839.4280u    1.0231m  365.2332u  388.6356u
  gam eff  536.7083m  536.7083m    1.0081     1.0081   536.7083m    1.0307 
  gm       2.559e-20    1.4424p  412.5168f   29.6432p  226.7836f  685.3921f
  gds       66.6372f  662.7649u    1.7528m  538.1445f    2.4318f  782.3150u
  gmb      1.050e-20  859.1429f  319.9050f   10.9960p   90.4978f  581.9399f
  cdtot     13.9318f    3.0343f   11.1049f    6.7565f    6.5971f    6.8732f
  cgtot      6.1666f   10.2469f    9.9552f    5.5088f    6.1152f    4.8182f
  cstot      1.5754f    4.2762f    2.5830f    1.1011f    1.5754f    1.1362f
  cbtot     15.4744f    2.4879f   10.6453f    9.4210f    8.0963f    6.9007f
  cgs        1.4847f    4.8198f    3.6333f  675.8304a    1.4765f    1.6775f
  cgd        1.5639f    4.6535f    4.5925f    1.0673f    1.5641f    2.0893f



 subckt                                                                    
 element  0:m1876    0:m1877    0:m1878    0:m1879    0:m1880    0:m1881   
 model    0:cmosptt  0:cmosptt  0:cmosntt  0:cmosntt  0:cmosntt  0:cmosntt 
 region       Cutoff     Cutoff     Cutoff     Linear     Cutoff     Linear
  id         0.         0.      -1.092e-20  -10.0000p -3.125e-21  -10.0000p
  ibs        0.         0.         0.         0.         0.         0.     
  ibd        0.         0.         0.         0.         0.         0.     
  vgs        5.0000    12.8423p  -22.3588n    5.0000    -6.3913n    5.0000 
  vds      -22.3717n  -12.7826n  -22.3717n  -12.7826n   -6.4041n  -12.7826n
  vbs        5.0000     5.0000   -35.1542n  -12.7826n  -19.1867n  -12.7826n
  vth       -1.5195    -1.5195   699.7240m  699.7240m  699.7240m  699.7240m
  vdsat    -57.5248m  -57.5248m   42.2430m    1.4215    42.2430m    1.4215 
  vod        6.5195     1.5195  -699.7240m    4.3003  -699.7240m    4.3003 
  beta     124.2790u  124.2790u  462.4266u  388.6356u  462.4266u  388.6356u
  gam eff  497.8250m  497.8250m    1.0307     1.0307     1.0307     1.0307 
  gm         0.         0.       2.540e-19  684.7042f  7.272e-20  684.7042f
  gds        0.       1.260e-23  487.9820f  782.3150u  487.9822f  782.3150u
  gmb        0.         0.       1.046e-19  581.3559f  2.993e-20  581.3559f
  cdtot      3.8130f  705.3938a    5.9631f    1.1362f    5.9631f    1.1362f
  cgtot      2.8946f    2.2439f    2.8769f    4.8182f    2.8769f    4.8182f
  cstot    705.3938a  705.3938a  501.1062a    1.9950f  501.1062a    1.9950f
  cbtot      4.6212f  843.7632a    7.5450f    2.0225f    7.5450f    2.0225f
  cgs      684.2357a  697.8518a  484.7309a    2.0893f  484.7309a    2.0893f
  cgd      696.7981a  702.3300a  309.2027a    1.6775f  309.2027a    1.6775f



 subckt                                                                    
 element  0:m1882    0:m1883    0:m1884    0:m1885    0:m1886    0:m1887   
 model    0:cmosptt  0:cmosptt  0:cmosptt  0:cmosptt  0:cmosptt  0:cmosptt 
 region       Cutoff     Cutoff     Linear     Linear     Linear     Linear
  id         0.         0.        -5.1228p    5.1228p  -10.2456p   -7.6842p
  ibs        0.         0.         0.         0.         0.         0.     
  ibd        0.         0.         0.         0.         0.         0.     
  vgs        5.0000    12.8424p   -5.0000    -5.0000    -5.0000    -5.0000 
  vds       -6.4041n  -12.7826n   -7.7295n    7.7295n  -15.4589n  -11.5942n
  vbs        5.0000     5.0000     0.         7.7295n    7.7295n    0.     
  vth       -1.5195    -1.5195  -855.7622m -855.7622m -855.7622m -855.7622m
  vdsat    -57.5248m  -57.5248m   -2.3271    -2.3271    -2.3271    -2.3271 
  vod        6.5195     1.5195    -4.1442    -4.1442    -4.1442    -4.1442 
  beta     124.2790u  124.2790u  228.3604u  228.3604u  228.3604u  228.3604u
  gam eff  497.8250m  497.8250m  536.7083m  536.7083m  536.7083m  536.7083m
  gm         0.         0.       655.3800f  655.3800f    1.3108p  983.0700f
  gds        0.       1.260e-23  662.7649u  662.7649u  662.7649u  662.7649u
  gmb        0.         0.       390.3718f  390.3718f  780.7436f  585.5577f
  cdtot      3.8130f  705.3938a   27.4788f    3.0343f   25.9686f   12.1019f
  cgtot      2.8946f    2.2439f   10.2469f   10.2469f   10.2469f   10.2469f
  cstot    705.3938a  705.3938a    3.0343f    4.2762f    3.0343f    3.0343f
  cbtot      4.6212f  843.7632a   25.6905f    2.4879f   24.1803f   10.3136f
  cgs      684.2357a  697.8518a    4.6535f    4.8198f    4.6535f    4.6535f
  cgd      696.7981a  702.3300a    4.8198f    4.6535f    4.8198f    4.8198f



 subckt                                                                    
 element  0:m1888    0:m1889    0:m1890    0:m1891    0:m1892    0:m1893   
 model    0:cmosptt  0:cmosptt  0:cmosptt  0:cmosptt  0:cmosptt  0:cmosptt 
 region       Linear     Linear     Linear     Linear     Cutoff     Linear
  id        -7.6842p -5.887e-19  5.887e-19 -5.887e-19 -1.296e-20  -42.9637p
  ibs        0.         0.         0.         0.         0.         0.     
  ibd        0.         0.         0.         0.         0.         0.     
  vgs       -5.0000    -5.0000    -5.0000    -5.0000   -23.1884n   -5.0000 
  vds      -11.5942n -888.1784a  888.1784a -888.1784a -194.4748n  -64.8249n
  vbs       11.5942n    0.       888.1784a    0.       888.1784a    0.     
  vth     -855.7622m -855.7622m -855.7622m -855.7622m -855.7622m -855.7622m
  vdsat     -2.3271    -2.3271    -2.3271    -2.3271   -48.7798m   -2.3271 
  vod       -4.1442    -4.1442    -4.1442    -4.1442   855.7621m   -4.1442 
  beta     228.3604u  228.3604u  228.3604u  228.3604u  362.3202u  228.3604u
  gam eff  536.7083m  536.7083m  536.7083m  536.7083m  536.7083m  536.7083m
  gm       983.0701f  7.531e-20  7.531e-20  7.531e-20  2.925e-19    5.4965p
  gds      662.7649u  662.7649u  662.7649u  662.7649u   66.6370f  662.7649u
  gmb      585.5577f  4.486e-20  4.486e-20  4.486e-20  1.201e-19    3.2739p
  cdtot      4.2762f   38.3250f    3.0343f    4.2762f   23.2678f   12.1019f
  cgtot     10.2469f   10.2469f   10.2469f   10.2469f    6.1666f   10.2469f
  cstot      3.0343f    3.0343f    4.2762f    3.0343f    1.5754f    3.0343f
  cbtot      2.4879f   36.5367f    2.4879f    2.4879f   24.8104f   10.3136f
  cgs        4.6535f    4.6535f    4.8198f    4.6535f    1.4847f    4.6535f
  cgd        4.8198f    4.8198f    4.6535f    4.8198f    1.5639f    4.8198f



 subckt                                                                    
 element  0:m1894    0:m1895    0:m1896    0:m1897    0:m1898    0:m1899   
 model    0:cmosptt  0:cmosptt  0:cmosptt  0:cmosptt  0:cmosntt  0:cmosntt 
 region       Linear     Linear     Cutoff     Cutoff     Cutoff     Cutoff
  id       -42.9637p  -42.9637p  -10.0468f  -10.0468f   21.1922f  -21.1922f
  ibs        0.         0.         0.         0.         0.         0.     
  ibd        0.         0.         0.         0.         0.         0.     
  vgs       -5.0000    -5.0000  -194.4748n  -23.1884n   12.7826n -826.2692m
  vds      -64.8249n  -64.8249n   -5.0000    -5.0000   826.2692m -826.2692m
  vbs       64.8249n  129.6499n    0.         0.         0.      -826.2692m
  vth     -855.7622m -855.7622m -831.5629m -831.5629m  689.3610m  689.3610m
  vdsat     -2.3271    -2.3271   -48.7748m  -48.7748m   42.2423m   42.2423m
  vod       -4.1442    -4.1442   831.5627m  831.5628m -689.3610m   -1.5156 
  beta     228.3604u  228.3604u  365.2332u  365.2332u  462.6700u  462.6700u
  gam eff  536.7083m  536.7083m  536.7083m  536.7083m    1.0307     1.0307 
  gm         5.4965p    5.4965p  226.7846f  226.7837f  493.1283f  493.1284f
  gds      662.7649u  662.7649u    2.4318f    2.4318f    7.8486f    7.8486f
  gmb        3.2739p    3.2739p   90.4982f   90.4978f  198.8542f  198.8543f
  cdtot     12.1019f    4.2762f    1.5754f    6.5971f    9.3659f  501.1062a
  cgtot     10.2469f   10.2469f    6.1152f    6.1152f    2.8705f    2.8705f
  cstot      3.0343f    3.0343f    1.5754f    1.5754f  501.1062a  501.1061a
  cbtot     10.3136f    2.4879f    3.0746f    8.0963f   10.9412f    2.0763f
  cgs        4.6535f    4.6535f    1.4765f    1.4765f  309.3286a  484.8069a
  cgd        4.8198f    4.8198f    1.5641f    1.5641f  484.8069a  309.3287a



 subckt                                                                    
 element  0:m1900    0:m1901    0:m1902    0:m1903    0:m1904    0:m1905   
 model    0:cmosntt  0:cmosntt  0:cmosntt  0:cmosntt  0:cmosntt  0:cmosntt 
 region       Cutoff     Cutoff     Cutoff     Cutoff     Cutoff     Cutoff
  id       1.725e-25   24.5061f    0.        60.2686f  -60.2686f   60.2686f
  ibs        0.         0.         0.         0.         0.         0.     
  ibd        0.         0.         0.         0.         0.         0.     
  vgs     -826.2692m   25.6739n   -1.2439     0.        -4.1593    12.7826n
  vds        4.1737     1.2439     3.7561     4.1593    -4.1593     4.1593 
  vbs     -826.2692m    0.        -1.2439     0.        -4.1593     0.     
  vth      828.1898m  684.1235m  896.2738m  647.5585m  647.5585m  647.5585m
  vdsat     46.2683m   42.2420m   47.5097m   42.2397m   42.2397m   42.2397m
  vod       -1.6545  -684.1234m   -2.1401  -647.5585m   -4.8069  -647.5585m
  beta     452.1628u  462.7920u  447.5141u  463.6253u  463.6253u  463.6253u
  gam eff    1.1104     1.0307     1.1430     1.0307     1.0307     1.0307 
  gm       4.350e-24  570.2363f    0.         1.4023p    1.4023p    1.4023p
  gds      6.256e-26    8.1345f    0.        19.4365f   19.4365f   19.4365f
  gmb      1.125e-24  229.2591f    0.       552.2450f  552.2453f  552.2451f
  cdtot      6.9489f    3.6102f  501.1061a   10.8229f  501.1065a  501.1061a
  cgtot      2.7753f    2.8673f    2.7471f    2.8456f    2.8456f    2.8456f
  cstot    501.1061a  501.1063a  501.1061a  501.1065a  501.1061a  501.1065a
  cbtot      8.4102f    5.1821f    1.9272f   12.3725f    2.0507f    2.0507f
  cgs      327.6910a  309.3903a  334.6526a  309.7844a  485.1040a  309.7844a
  cgd      485.2290a  484.8451a  485.2295a  485.1040a  309.7844a  485.1040a



 subckt                                                                    
 element  0:m1906    0:m1907    0:m1908    0:m1909    0:m1910    0:m1911   
 model    0:cmosntt  0:cmosntt  0:cmosntt  0:cmosntt  0:cmosntt  0:cmosntt 
 region       Cutoff     Cutoff     Cutoff     Cutoff     Linear     Linear
  id        28.4552p   16.9968f  5.038e-19    0.        15.0100p   10.0100p
  ibs        0.         0.         0.         0.         0.         0.     
  ibd        0.         0.         0.         0.         0.         0.     
  vgs      840.7021m    0.      -328.8009m   -1.3322     5.0000     5.0000 
  vds      840.7019m  328.8009m    1.0034     3.6678    19.1867n   12.7954n
  vbs       -4.1593     0.      -328.8009m   -1.3322     0.         0.     
  vth        1.1748   695.6002m  772.2857m  909.1236m  699.7240m  699.7240m
  vdsat     52.3632m   42.2427m   44.2363m   47.7377m    1.4215     1.4215 
  vod     -334.0660m -695.6002m   -1.1011    -2.2413     4.3003     4.3003 
  beta     425.1555u  462.5237u  457.5325u  446.6044u  388.6356u  388.6356u
  gam eff    1.3118     1.0307     1.0658     1.1494     1.0307     1.0307 
  gm       760.4768p  395.5062f   12.2335a    0.         1.0277p  685.3921f
  gds       14.0972p    9.9709f  1.855e-19    0.       782.3150u  782.3150u
  gmb       38.5324p  160.0835f    4.1147a    0.       872.6179f  581.9399f
  cdtot      6.9489f    3.9792f    3.5856f  501.1061a    1.9950f    6.8732f
  cgtot      2.0622f    2.8743f    2.8384f    2.7414f    4.8182f    4.8182f
  cstot    501.2557a  501.1062a  501.1061a  501.1061a    1.1362f    1.1362f
  cbtot      7.5791f    5.5584f    5.1201f    1.9202f    2.0225f    6.9007f
  cgs      437.9440a  309.2535a  317.8259a  336.0587a    1.6775f    1.6775f
  cgd      492.9837a  484.7612a  484.8919a  485.2278a    2.0893f    2.0893f



 ******
 *********************************************************

 ****** transient analysis tnom=  25.000 temp=  70.000 ******
 critical_path_delay=   2.3415n  targ=   2.4415n   trig= 100.0000p

          ***** job concluded
1****** HSPICE -- K-2015.06 linux64 (May 25 2015) ******                        
 ******  
 *********************************************************

 ****** job statistics summary tnom=  25.000 temp=  70.000 ******
  
  
 ******  Machine Information  ******
 CPU:
 model name	: Intel(R) Xeon(R) CPU E5-4617 0 @ 2.90GHz
 cpu MHz	: 1200.000
  
 OS:
 Linux version 2.6.32-696.30.1.el6.x86_64 (mockbuild@x86-033.build.eng.bos.redhat.com) (gcc version 4.4.7 20120313 (Red Hat 4.4.7-18) (GCC) ) #1 SMP Fri May 18 11:50:44 EDT 2018


  ******  HSPICE Threads Information  ******

  Command Line Threads Count :     1
  Available CPU Count        :    12
  Actual Threads Count       :     1


  ****** Statistics of Ignored Elements ******
  Capacitors      :       1

  ******  Circuit Statistics  ******
  # nodes       =     501 # elements   =    1261
  # resistors   =       0 # capacitors =     329 # inductors   =       0
  # mutual_inds =       0 # vccs       =       0 # vcvs        =       0
  # cccs        =       0 # ccvs       =       0 # volt_srcs   =      20
  # curr_srcs   =       0 # diodes     =       0 # bjts        =       0
  # jfets       =       0 # mosfets    =     912 # U elements  =       0
  # T elements  =       0 # W elements =       0 # B elements  =       0
  # S elements  =       0 # P elements =       0 # va device   =       0
  # vector_srcs =       0 # N elements =       0


  ******  Runtime Statistics (seconds)  ******

  analysis           time    # points   tot. iter  conv.iter
  op point           0.23           1          45
  transient          5.25        4001        4180        1316 rev=        29
  readin             0.09
  errchk             0.03
  setup              0.01
  output             0.00


           peak memory used        209.29 megabytes
           total cpu time            5.57 seconds
           total elapsed time        5.47 seconds
           job started at     23:39:36 12/07/2018
           job ended   at     23:39:41 12/07/2018


 lic: Release hspice token(s) 
 lic: total license checkout elapse time:        0.25(s)
